/*--------------------------------*- C++ -*----------------------------------*\
| =========                 |                                                 |
| \\      /  F ield         | OpenFOAM: The Open Source CFD Toolbox           |
|  \\    /   O peration     | Version:  v1812                                 |
|   \\  /    A nd           | Web:      www.OpenFOAM.com                      |
|    \\/     M anipulation  |                                                 |
\*---------------------------------------------------------------------------*/
FoamFile
{
    version     2.0;
    format      ascii;
    class       polyTopoChanger;
    location    "constant/polyMesh";
    object      meshModifiers;
}
// * * * * * * * * * * * * * * * * * * * * * * * * * * * * * * * * * * * * * //

1
(
couple0
{
    type            slidingInterface;
    masterFaceZoneName i_tip_twoo_tip_twoMasterZone;
    slaveFaceZoneName i_tip_twoo_tip_twoSlaveZone;
    cutPointZoneName i_tip_twoo_tip_twoCutPointZone;
    cutFaceZoneName i_tip_twoo_tip_twoCutFaceZone;
    masterPatchName i_tip_two;
    slavePatchName  o_tip_two;
    typeOfMatch     integral;
    coupleDecouple  true;
    projection      visible;
    attached        true;
    active          true;
    masterFaceCells List<label> 
720
(
421902
421914
421926
421938
421950
421962
421974
421986
421998
422010
421903
421915
421927
421939
421951
421963
421975
421987
421999
422011
421904
421916
421928
421940
421952
421964
421976
421988
422000
422012
421905
421917
421929
421941
421953
421965
421977
421989
422001
422013
421906
421918
421930
421942
421954
421966
421978
421990
422002
422014
421907
421919
421931
421943
421955
421967
421979
421991
422003
422015
421908
421920
421932
421944
421956
421968
421980
421992
422004
422016
421909
421921
421933
421945
421957
421969
421981
421993
422005
422017
421910
421922
421934
421946
421958
421970
421982
421994
422006
422018
421911
421923
421935
421947
421959
421971
421983
421995
422007
422019
421912
421924
421936
421948
421960
421972
421984
421996
422008
422020
421913
421925
421937
421949
421961
421973
421985
421997
422009
422021
422082
422088
422094
422100
422106
422112
422118
422124
422130
422136
422083
422089
422095
422101
422107
422113
422119
422125
422131
422137
422084
422090
422096
422102
422108
422114
422120
422126
422132
422138
422085
422091
422097
422103
422109
422115
422121
422127
422133
422139
422086
422092
422098
422104
422110
422116
422122
422128
422134
422140
422087
422093
422099
422105
422111
422117
422123
422129
422135
422141
422202
422208
422214
422220
422226
422232
422238
422244
422250
422256
422203
422209
422215
422221
422227
422233
422239
422245
422251
422257
422204
422210
422216
422222
422228
422234
422240
422246
422252
422258
422205
422211
422217
422223
422229
422235
422241
422247
422253
422259
422206
422212
422218
422224
422230
422236
422242
422248
422254
422260
422207
422213
422219
422225
422231
422237
422243
422249
422255
422261
422322
422328
422334
422340
422346
422352
422358
422364
422370
422376
422323
422329
422335
422341
422347
422353
422359
422365
422371
422377
422324
422330
422336
422342
422348
422354
422360
422366
422372
422378
422325
422331
422337
422343
422349
422355
422361
422367
422373
422379
422326
422332
422338
422344
422350
422356
422362
422368
422374
422380
422327
422333
422339
422345
422351
422357
422363
422369
422375
422381
422442
422448
422454
422460
422466
422472
422478
422484
422490
422496
422443
422449
422455
422461
422467
422473
422479
422485
422491
422497
422444
422450
422456
422462
422468
422474
422480
422486
422492
422498
422445
422451
422457
422463
422469
422475
422481
422487
422493
422499
422446
422452
422458
422464
422470
422476
422482
422488
422494
422500
422447
422453
422459
422465
422471
422477
422483
422489
422495
422501
422622
422634
422646
422658
422670
422682
422694
422706
422718
422730
422623
422635
422647
422659
422671
422683
422695
422707
422719
422731
422624
422636
422648
422660
422672
422684
422696
422708
422720
422732
422625
422637
422649
422661
422673
422685
422697
422709
422721
422733
422626
422638
422650
422662
422674
422686
422698
422710
422722
422734
422627
422639
422651
422663
422675
422687
422699
422711
422723
422735
422628
422640
422652
422664
422676
422688
422700
422712
422724
422736
422629
422641
422653
422665
422677
422689
422701
422713
422725
422737
422630
422642
422654
422666
422678
422690
422702
422714
422726
422738
422631
422643
422655
422667
422679
422691
422703
422715
422727
422739
422632
422644
422656
422668
422680
422692
422704
422716
422728
422740
422633
422645
422657
422669
422681
422693
422705
422717
422729
422741
422802
422808
422814
422820
422826
422832
422838
422844
422850
422856
422803
422809
422815
422821
422827
422833
422839
422845
422851
422857
422804
422810
422816
422822
422828
422834
422840
422846
422852
422858
422805
422811
422817
422823
422829
422835
422841
422847
422853
422859
422806
422812
422818
422824
422830
422836
422842
422848
422854
422860
422807
422813
422819
422825
422831
422837
422843
422849
422855
422861
422922
422928
422934
422940
422946
422952
422958
422964
422970
422976
422923
422929
422935
422941
422947
422953
422959
422965
422971
422977
422924
422930
422936
422942
422948
422954
422960
422966
422972
422978
422925
422931
422937
422943
422949
422955
422961
422967
422973
422979
422926
422932
422938
422944
422950
422956
422962
422968
422974
422980
422927
422933
422939
422945
422951
422957
422963
422969
422975
422981
423042
423048
423054
423060
423066
423072
423078
423084
423090
423096
423043
423049
423055
423061
423067
423073
423079
423085
423091
423097
423044
423050
423056
423062
423068
423074
423080
423086
423092
423098
423045
423051
423057
423063
423069
423075
423081
423087
423093
423099
423046
423052
423058
423064
423070
423076
423082
423088
423094
423100
423047
423053
423059
423065
423071
423077
423083
423089
423095
423101
423162
423168
423174
423180
423186
423192
423198
423204
423210
423216
423163
423169
423175
423181
423187
423193
423199
423205
423211
423217
423164
423170
423176
423182
423188
423194
423200
423206
423212
423218
423165
423171
423177
423183
423189
423195
423201
423207
423213
423219
423166
423172
423178
423184
423190
423196
423202
423208
423214
423220
423167
423173
423179
423185
423191
423197
423203
423209
423215
423221
)
;
    slaveFaceCells  List<label> 
288
(
43327
43332
41028
43326
57491
57494
57489
57496
57500
57497
46108
46111
46109
57483
57487
57482
57948
57967
57926
57807
58003
58091
57927
58105
58112
57933
57949
57951
57947
57968
57972
57970
58077
58082
58078
58011
58014
58009
58002
58007
58005
58094
58096
58092
58084
58089
58086
58106
58110
58108
58115
58117
58113
58098
58103
58100
92054
92281
91540
91576
91611
91547
91583
91618
91554
91590
91625
91561
91597
91630
91320
91539
91570
91572
92068
91605
91328
91599
91321
91546
91545
91577
91579
91578
91612
91329
91606
91322
91553
91552
91584
91586
91585
91619
91330
91613
91323
91560
91559
91591
91593
91592
91626
91331
91620
91565
91598
91627
92057
92059
92055
92284
92286
92283
91869
91873
91870
92104
92108
92105
92333
92336
92331
91917
91922
91919
92153
92157
92154
92382
92385
92380
91966
91971
91968
92202
92206
92203
92431
92434
92429
92015
92020
92017
92233
92238
92235
92451
92455
92450
91727
91729
91725
91863
91866
91861
92063
92066
92062
92077
92080
92076
92069
92073
92071
92289
92294
92291
91780
91785
91782
92249
92251
92247
91733
91736
91731
91912
91915
91910
91903
91908
91905
92112
92115
92111
92126
92129
92125
92118
92122
92119
92338
92343
92340
91787
91792
91789
92298
92301
92296
91740
91743
91738
91961
91964
91959
91952
91957
91954
92161
92164
92160
92175
92178
92174
92167
92171
92168
92387
92392
92389
91794
91799
91796
92347
92350
92345
91747
91750
91745
92010
92013
92008
92001
92006
92003
92210
92213
92209
92224
92227
92223
92216
92220
92217
92436
92441
92438
91801
91806
91803
92396
92399
92394
92022
92024
92026
92031
92027
92231
92229
92242
92245
92240
92445
92448
92443
116411
116809
116811
116412
116813
116413
117330
117334
117329
119362
119365
117338
117341
117336
119369
119374
119371
117343
117348
117344
)
;
    masterStickOutFaces List<label> 
1844
(
294918
294919
294923
294930
294931
294952
294960
294961
294966
294973
294974
270402
270403
270407
295003
295010
295011
295021
295022
1294491
1294492
1294493
1294494
1294495
1294496
1294497
1294498
1294499
1294500
1294501
1294502
1294503
1294504
1294505
1294506
1294507
1294508
1294509
1294510
1294511
1294512
1294513
1294514
1294515
1294516
1294517
1294518
1294519
1294520
1294521
1294522
1294523
1294524
1294525
1294526
1294527
1294528
1294529
1294530
1294531
1294532
1294533
1294534
1294535
1294536
1294537
1294538
1294539
1294540
1294541
1294542
1294543
1294544
1294545
1294546
1294547
1294548
1294549
1294550
1294551
1294552
368856
1294553
1294554
368858
1294555
1294556
1294557
1294558
1294559
1294560
1294561
1294562
1294563
1294564
1294565
1294566
1294567
1294568
1294569
1294570
1294571
1294572
1294573
1294574
1294575
1294576
1294577
1294578
1294579
1294580
1294581
1294582
1294583
1294584
1294585
1294586
1294587
1294588
1294589
1294590
1294591
1294592
155904
1294593
155905
1294594
1294595
1294596
1294597
1294598
1294599
1294600
1294601
1294602
1294603
1294604
278880
278881
156001
278883
369010
369011
369015
369044
369045
369046
369050
1294779
1294780
1294781
1294782
1294783
1294784
1294785
1294786
369090
1294787
369091
1294788
1294789
1294790
1294791
369095
1294792
1294793
1294794
1294795
1294796
1294797
1294798
1294799
1294800
1294801
1294802
1294803
1294804
1294805
1294806
1294807
1294808
1294809
1294810
1294811
1294812
1294813
1294814
1294815
1294816
1294817
1294818
1294819
1294820
1294821
1294822
1294823
1294824
1294825
1294826
1294827
1294828
1294829
1294830
1294831
1294832
1294833
1294834
1294835
1294836
1294837
1294838
1294839
1294840
1294841
1294842
1294843
1294844
1294845
1294846
1294847
1294848
1294849
1294850
1294851
1294852
1294853
1294854
1294855
279047
1294856
1294857
279049
1294858
1294859
1294860
1294861
1294862
1294863
1294864
1294865
1294866
1294867
1294868
1294869
1294870
1294871
1294872
1294873
1294874
1294875
1294876
1294877
1294878
1294879
1294880
1294881
1294882
1294883
1294884
1294885
1294886
1294887
1294888
1294889
1294890
1294891
1294892
156365
156367
1295057
1295058
1295059
1295060
1295061
1295062
1295063
1295064
1295065
1295066
1295067
1295068
1295069
1295070
1295071
1295072
1295073
1295074
1295075
1295076
1295077
1295078
1295079
1295080
1295081
1295082
1295083
1295084
1295085
1295086
1295087
1295088
1295089
1295090
1295091
1295092
1295093
1295094
1295095
1295096
1295097
1295098
1295099
1295100
1295101
1295102
1295103
1295104
1295105
1295106
1295107
1295108
1295109
1295110
1295111
1295112
1295113
1295114
1295115
1295116
1295117
1295118
1295119
1295120
1295121
1295122
1295123
1295124
1295125
1295126
1295127
1295128
1295129
1295130
1295131
1295132
1295133
1295134
1295135
1295136
1295137
1295138
1295139
1295140
1295141
1295142
1295143
1295144
1295145
1295146
1295147
1295148
1295149
1295150
1295151
1295152
1295153
1295154
1295155
1295156
1295157
1295158
1295159
1295160
156497
156499
156681
156683
99370
99373
99374
377944
377950
377959
99505
99506
99509
99511
279946
279948
107918
107919
108149
108151
370308
370309
370310
370318
370319
370327
370328
370343
370344
370386
370425
1337166
1337168
370514
1337170
370516
1337172
1337174
1337176
1337178
1337180
1337182
1337184
1337186
1337188
1337190
1337192
272233
1337194
272236
1337196
1337198
1337200
1337202
1337204
1337206
1337208
1337210
1337212
1337214
1337216
1337218
1337220
1337222
1337224
1337226
1337228
272269
1337230
1337232
272272
1337234
1337236
1337238
1337240
1337242
1337244
1337246
1337248
1337250
1337252
1337254
1337256
1337258
1337260
1337262
1337264
1337266
1337268
370613
1337270
370614
370616
1337272
1337274
1337276
1337278
1337280
1337282
1337284
1337286
1337288
1337290
1337292
1337294
1337296
370641
370642
1337298
1337300
370644
1337302
1337304
1337306
1337308
370683
370684
370686
281033
281035
133949
133950
133951
289611
289613
289615
289616
289617
289620
289621
289622
289625
289626
289627
289630
191338
191339
191340
191347
191348
289653
289654
191351
289657
289658
289661
191358
289662
191359
289665
289666
289667
191374
191381
191382
134047
134049
191399
191400
289710
289712
118001
290275
290277
372204
372205
290309
290310
290343
290344
290377
290378
118374
118375
118377
290575
290606
372538
372541
372542
290634
372555
372556
102220
102223
102224
372573
372576
372577
290662
290663
290693
290694
290720
372665
290753
372751
372831
372901
372902
291101
373037
373039
291122
291123
119114
119115
119116
291149
291150
102759
291176
291177
102761
102762
102764
373169
373171
291303
291327
291351
291375
291376
291406
373350
373352
291449
291450
291453
291454
291461
291463
291468
291469
291472
291489
291491
291497
291498
291501
291519
291521
291523
291524
291538
103122
103125
103127
119563
119565
144252
144253
144256
144297
144298
144300
144303
275382
275383
275385
185316
136166
136169
136171
136202
136203
136206
136208
185371
136248
136249
136253
275555
275556
275558
291950
382065
144502
144503
382073
144505
382074
382084
382085
144530
144531
144533
144572
144573
144575
275795
275796
275798
185754
185755
185758
185764
185765
185766
103937
103938
104124
104125
104127
1292063
1292064
1292065
1292066
1292067
1292068
1292069
1292070
1292071
1292072
1292073
1292074
1292075
1292076
1292077
1292078
1292079
1292080
1292081
1292082
1292083
1292084
1292085
1292086
1292087
1292088
1292089
1292090
1292091
1292092
1292093
1292094
1292095
1292096
1292097
1292098
1292099
1292100
1292101
1292102
1292103
1292104
1292105
1292106
1292107
1292108
1292109
1292110
1292111
1292112
1292113
1292114
1292115
1292116
1292117
1292118
1292119
1292120
1292121
1292122
1292123
1292124
1292125
1292126
1292127
1292128
1292129
1292130
1292131
1292132
1292133
1292134
1292135
1292136
1292137
1292138
1292139
1292140
1292141
1292142
1292143
1292144
1292145
1292146
1292147
1292148
1292149
1292150
1292151
1292152
1292153
1292154
1292155
1292156
1292157
1292158
1292159
1292160
1292161
1292162
1292163
1292164
1292165
1292166
1292167
1292168
1292169
1292170
1292171
1292172
1292173
1292174
1292175
1292176
1292177
1292178
1292179
1292180
1292181
1292182
1292183
1292184
1292185
1292186
1292187
1292188
1292189
1292190
1292191
1292192
1292193
1292194
1292195
1292196
1292197
1292198
1292199
1292200
1292201
1292202
1292203
1292204
1292205
1292206
1292207
1292208
1292209
1292210
1292211
1292212
1292213
1292214
1292215
1292216
1292217
1292218
1292219
1292220
1292221
1292222
1292223
1292224
1292225
1292226
1292227
1292228
1292229
1292230
1292231
1292232
1292233
1292234
1292235
1292236
1292237
1292238
1292239
1292240
1292241
1292242
1292243
1292244
1292245
1292246
1292247
1292248
1292249
1292250
1292251
1292252
1292253
1292254
1292255
1292256
1292257
1292258
1292259
292836
1292260
1292261
1292262
1292263
1292264
1292265
1292266
1292267
1292268
1292269
1292270
1292271
1292272
1292273
1292274
1292275
1292276
1292277
1292278
1292279
1292280
1292281
1292282
1292283
1292284
1292285
1292286
1292287
1292288
1292289
1292290
1292291
1292292
1292293
1292294
1292295
1292296
1292297
1292298
1292299
1292300
292947
292948
186466
186467
292980
1292475
1292476
1292477
1292478
1292479
1292480
1292481
1292482
1292483
1292484
1292485
1292486
1292487
1292488
1292489
1292490
1292491
1292492
1292493
1292494
1292495
1292496
1292497
1292498
1292499
1292500
1292501
1292502
1292503
1292504
1292505
1292506
1292507
1292508
1292509
1292510
1292511
1292512
1292513
1292514
1292515
1292516
1292517
1292518
1292519
1292520
1292521
1292522
1292523
1292524
1292525
1292526
1292527
1292528
1292529
1292530
1292531
1292532
1292533
1292534
1292535
1292536
1292537
1292538
1292539
1292540
1292541
1292542
1292543
1292544
1292545
1292546
1292547
1292548
1292549
1292550
1292551
1292552
1292553
1292554
1292555
1292556
1292557
1292558
1292559
1292560
1292561
1292562
1292563
1292564
1292565
1292566
1292567
1292568
1292569
1292570
1292571
1292572
1292573
1292574
1292575
1292576
1292577
1292578
1292579
1292580
1292581
1292582
1292583
1292584
1292585
1292586
1292587
268588
1292588
268590
268592
268594
268621
268622
268624
268627
268669
268670
268672
268675
1292763
1292764
1292765
1292766
1292767
186847
1292768
186848
1292769
1292770
1292771
1292772
1292773
1292774
1292775
1292776
1292777
1292778
1292779
1292780
1292781
1292782
1292783
1292784
1292785
1292786
1292787
1292788
1292789
1292790
1292791
1292792
1292793
1292794
1292795
1292796
1292797
1292798
1292799
1292800
1292801
1292802
1292803
1292804
1292805
1292806
1292807
1292808
1292809
1292810
1292811
186891
1292812
186892
1292813
1292814
1292815
1292816
1292817
1292818
1292819
1292820
1292821
1292822
1292823
1292824
1292825
1292826
1292827
1292828
1292829
1292830
1292831
1292832
1292833
1292834
1292835
1292836
1292837
1292838
1292839
1292840
1292841
1292842
1292843
1292844
1292845
1292846
1292847
1292848
1292849
186929
186930
1292850
1292851
186931
1292852
1292853
186933
1292854
1292855
1292856
1292857
1292858
1292859
1292860
1292861
1292862
1292863
1292864
1292865
1292866
1292867
1292868
1292869
1292870
1292871
1292872
1292873
1292874
1292875
1292876
186972
129707
187053
129709
187054
129710
187055
129712
187057
129713
187058
129714
129717
129719
129720
129721
129723
129726
1293051
187131
1293052
187132
1293053
1293054
1293055
1293056
1293057
1293058
1293059
1293060
1293061
1293062
1293063
1293064
1293065
1293066
1293067
1293068
1293069
1293070
1293071
1293072
1293073
1293074
1293075
1293076
1293077
1293078
1293079
1293080
1293081
1293082
1293083
1293084
1293085
1293086
1293087
1293088
1293089
1293090
1293091
1293092
1293093
1293094
1293095
1293096
1293097
1293098
1293099
1293100
1293101
1293102
1293103
1293104
1293105
1293106
1293107
1293108
1293109
1293110
1293111
1293112
187192
1293113
187193
1293114
1293115
1293116
1293117
1293118
1293119
1293120
1293121
1293122
1293123
1293124
1293125
1293126
1293127
1293128
1293129
1293130
1293131
1293132
1293133
1293134
1293135
1293136
1293137
1293138
1293139
1293140
1293141
1293142
1293143
1293144
1293145
1293146
1293147
1293148
1293149
1293150
1293151
1293152
1293153
1293154
1293155
1293156
1293157
1293158
1293159
1293160
1293161
1293162
1293163
1293164
187247
187248
187255
187256
187268
187283
187308
187309
187310
187317
187318
187325
187328
187337
187384
1293339
1293340
1293341
1293342
1293343
1293344
1293345
1293346
1293347
1293348
1293349
1293350
187430
1293351
1293352
1293353
1293354
1293355
1293356
1293357
1293358
1293359
1293360
1293361
1293362
1293363
1293364
1293365
1293366
1293367
1293368
1293369
1293370
1293371
1293372
1293373
1293374
1293375
1293376
367681
1293377
1293378
367682
1293379
1293380
367684
1293381
1293382
1293383
367687
1293384
1293385
269386
1293386
1293387
1293388
269388
1293389
269389
1293390
269390
1293391
1293392
269392
1293393
1293394
269394
1293395
269395
1293396
1293397
1293398
269398
1293399
1293400
1293401
1293402
1293403
1293404
1293405
1293406
1293407
1293408
1293409
1293410
1293411
1293412
1293413
1293414
1293415
1293416
1293417
1293418
1293419
1293420
1293421
1293422
1293423
1293424
277616
1293425
277617
1293426
1293427
1293428
1293429
1293430
1293431
1293432
367736
1293433
367737
1293434
367739
1293435
1293436
1293437
1293438
367742
367743
1293439
367744
1293440
367745
1293441
1293442
1293443
1293444
367749
1293445
367750
1293446
1293447
367752
1293448
1293449
367754
1293450
1293451
277643
367756
1293452
277644
97640
97641
97644
97646
1293801
1293802
1293803
1293804
1293805
1293806
1293807
1293808
1293809
1293810
1293811
1293812
1293813
1293814
1293815
1293816
1293817
1293818
1293819
1293820
1293821
1293822
1293823
1293824
1293825
1293826
1293827
1293828
1293829
1293830
1293831
1293832
122376
1293833
1293834
155146
1293835
155147
1293836
1293837
1293838
1293839
1293840
1293841
1293842
1293843
1293844
1293845
1293846
1293847
1293848
1293849
1293850
1293851
1293852
1293853
1293854
1293855
1293856
1293857
1293858
1293859
1293860
1293861
1293862
1293863
1293864
1293865
1293866
1293867
1293868
1293869
1293870
1293871
1293872
1293873
1293874
269874
1293875
1293876
1293877
269877
1293878
1293879
269879
1293880
1293881
1293882
1293883
1293884
1293885
1293886
1293887
1293888
1293889
1293890
1293891
1293892
1293893
1293894
1293895
1293896
1293897
1293898
368202
1293899
1293900
1293901
1293902
1293903
1293904
1293905
1293906
1293907
1293908
1293909
1293910
1293911
1293912
269912
1293913
1293914
1293915
269915
1293916
1293917
269917
1293918
1293919
1293920
1293921
1293922
1293923
1293924
1293925
1293926
1293927
1293928
1293929
1293930
1293931
1293932
1293933
1293934
1293935
1293936
1293937
1293938
1293939
1293940
1293941
1293942
1293943
1293944
1293945
1293946
1293947
1293948
1293949
1293950
1293951
1293952
1293953
1293954
1293955
1293956
1293957
1293958
1293959
1293960
1293961
1293962
1293963
1293964
1293965
1293966
1293967
1293968
1293969
1293970
1293971
1293972
1293973
1293974
1293975
1293976
1293977
1293978
1293979
1293980
1293981
1293982
1293983
1293984
1293985
1293986
1293987
1293988
1293989
1293990
1293991
1293992
1293993
1293994
1293995
1293996
1293997
1293998
1293999
1294000
1294001
1294002
1294003
1294004
1294005
1294006
1294007
1294008
1294009
1294010
286394
1294011
1294012
1294013
1294014
1294015
1294016
1294017
1294018
1294019
1294020
1294021
1294022
1294023
1294024
1294025
1294026
1294027
1294028
270134
270135
270139
286526
368457
130889
368458
368459
368461
368462
368463
368464
368467
368468
368469
368470
368504
1294203
368507
1294204
1294205
1294206
1294207
1294208
1294209
1294210
1294211
1294212
1294213
1294214
1294215
1294216
1294217
1294218
1294219
1294220
1294221
1294222
1294223
1294224
1294225
1294226
1294227
1294228
1294229
1294230
1294231
1294232
1294233
1294234
1294235
1294236
368540
1294237
368541
1294238
1294239
1294240
1294241
1294242
1294243
1294244
1294245
1294246
1294247
1294248
1294249
1294250
1294251
1294252
1294253
1294254
1294255
1294256
1294257
1294258
1294259
1294260
1294261
1294262
1294263
1294264
1294265
1294266
368570
1294267
368571
1294268
1294269
1294270
1294271
1294272
1294273
1294274
1294275
1294276
1294277
1294278
1294279
1294280
1294281
1294282
1294283
1294284
1294285
1294286
1294287
1294288
1294289
1294290
1294291
1294292
1294293
1294294
1294295
1294296
1294297
1294298
1294299
1294300
1294301
1294302
1294303
1294304
1294305
1294306
1294307
1294308
1294309
1294310
1294311
1294312
1294313
1294314
1294315
1294316
294909
294911
)
;
    slaveStickOutFaces List<label> 
948
(
294918
294919
294923
294930
294931
294952
294960
294961
294966
294973
294974
270402
270403
270407
295003
295010
295011
295021
295022
368856
368858
155904
155905
1294599
1294600
1294601
1294602
1294603
1294604
278880
156000
278881
156001
156002
278883
156004
156005
156007
156008
369010
369011
369015
369044
369045
369046
369050
369090
369091
369095
279047
279049
1294887
1294888
1294889
1294890
1294891
1294892
156365
156367
1295156
1295157
1295158
1295159
1295160
156497
156499
156681
156683
99370
99373
99374
377944
377950
377958
377959
377964
99505
99506
99509
99511
279946
279948
107918
107919
108149
108151
370308
370309
370310
370318
370319
370327
370328
370330
370343
370344
370386
370425
370514
370516
272233
272236
272269
272272
370613
370614
370616
370641
370642
370644
370683
370684
370686
281033
281035
133949
133950
133951
289611
289613
289614
289615
289616
289617
289619
289620
289621
289622
289624
289625
289626
289627
289629
289630
191338
191339
191340
191347
191348
289653
289654
191351
289656
289657
289658
289660
289661
289662
191358
191359
289664
289665
289666
289667
289669
191374
191381
191382
134047
134048
134049
191399
191400
289710
289712
118001
290270
290271
290272
290274
290275
290277
290278
372204
372205
290300
290301
290303
290304
290305
290306
290308
290309
290310
290312
290334
290335
290337
290338
290339
290340
290342
290343
290344
290346
290368
290369
290371
290372
290373
290374
290376
290377
290378
290380
118374
118375
118377
290410
290411
290412
290433
290435
290436
290442
290443
290445
290446
290463
290464
290465
290467
290468
290469
290471
290472
290473
290474
290476
290477
290494
290495
290496
290498
290499
290500
290502
290503
290504
290505
290507
290508
290526
290527
290528
290530
290531
290532
290534
290535
290536
290537
290539
290540
290568
290570
290571
290572
290574
290575
290577
290602
290603
290605
290606
290608
372537
372538
372540
372541
372542
290627
290629
290630
290631
290633
372554
290634
372555
372556
290636
102220
102223
102224
372562
372563
372572
372573
372575
290655
372576
372577
290657
290658
290659
290661
290662
290663
372585
290665
290686
290688
290689
290690
290692
290693
290694
290696
290717
290718
290720
372665
290753
372751
372831
372901
372902
291100
291101
291107
291108
291109
291113
373037
373039
291121
291122
291123
291130
291131
291132
291139
291140
119114
119115
291148
119116
291149
291150
291157
291158
291159
291166
291167
291175
102759
291176
291177
102761
102762
102764
291184
291185
291186
291193
291194
373169
373171
291302
291303
291309
291310
291311
291317
291318
291326
291327
291333
291334
291335
291341
291342
291350
291351
291357
291358
291359
291365
291366
291374
291375
291376
291383
291384
291385
291392
291393
291406
373350
373352
291449
291450
291453
291454
291461
291463
291468
291469
291472
291489
291491
291497
291498
291501
291519
291521
291523
291524
291538
103122
103125
103127
291587
291588
291594
119563
291595
119565
291607
291609
291610
291614
291689
291694
291695
291696
291699
291704
291705
144252
144253
291711
291712
144256
291721
291726
291727
291731
144297
144298
144300
144302
144303
275382
275383
275385
144337
144338
144340
144341
291806
291811
291812
185316
291813
136166
291816
136169
136171
291821
291822
291828
291829
291838
291843
291844
291848
136202
136203
136206
136208
185368
185370
185371
185375
185381
185386
185387
185388
185391
185395
185397
185399
185400
136248
136249
136253
291917
291922
291923
291924
291927
291932
291933
291939
275555
275556
291940
275558
291949
291950
382065
291954
291955
291958
144502
291959
144503
382073
144505
382074
291966
291967
291968
291969
382084
291973
382085
291974
291975
291980
291982
291983
144530
144531
144533
144572
144573
144575
292045
292046
292047
292048
292054
292055
292057
292058
292067
292069
292070
292071
292074
292077
292078
292079
292080
292085
292086
292087
292090
292099
292100
292102
292103
292170
292171
292173
292174
292177
292178
275795
275796
275798
292187
292189
292190
292191
292194
292203
292205
292206
292207
292210
292219
292220
292222
292223
185754
185755
185758
185764
185765
185766
292290
292291
292293
292294
292297
292298
292307
292309
292310
292311
292314
292323
292325
292326
292327
292330
292339
292340
292342
292343
103937
103938
292407
292408
292410
292411
292414
292415
292424
292426
292427
292428
292431
292440
292442
292443
292444
292447
292456
292457
292459
292460
292469
292470
292471
292474
292475
292476
292482
292486
292487
292489
292495
292496
292497
292502
292505
292512
292516
292518
292520
104124
104125
104127
292588
292589
292594
292597
292598
292600
292605
292606
292611
292619
292624
292625
292629
292701
292705
292706
292708
292713
292714
292719
292727
292732
292733
292737
292809
292813
292814
292816
292821
292822
292827
292835
292836
292842
292843
292848
1292288
1292289
1292290
1292291
1292292
1292293
1292294
1292295
1292296
1292297
1292298
1292299
1292300
292920
292924
292925
292927
292932
292933
292938
292946
292947
292948
292953
292954
292958
292959
186466
186467
292965
186469
292967
292968
292972
292980
1292583
1292584
1292585
1292586
1292587
268588
1292588
268590
268592
268594
268621
268622
268624
268627
268669
268670
268672
268675
186847
186848
186891
186892
186929
186930
186931
186933
186935
1292871
1292872
1292873
1292874
1292875
1292876
186972
186974
187049
187050
187051
129707
187052
129709
187053
129710
187054
187055
129712
187056
129713
187057
187058
129714
129717
187063
129719
187064
129720
129721
129723
129726
187108
187109
187110
187111
187112
187113
187118
187119
187120
187123
187131
187132
187192
187193
1293159
1293160
1293161
1293162
1293163
1293164
187244
187245
187246
187247
187248
187254
187255
187256
187259
187260
187267
187268
187273
187274
187275
187279
187280
187283
187308
187309
187310
187317
187318
187325
187328
187337
187384
187427
187429
187430
187434
187440
187444
187445
187447
187450
187451
187452
187453
367681
187457
367682
187458
367684
367687
187465
269386
269388
269389
187469
269390
187470
269392
187472
269394
269395
187476
187477
269398
187478
187479
187480
187481
187486
187487
187491
187492
187493
187494
187495
187499
277616
277617
367736
367737
367739
367742
367743
367744
367745
367749
367750
1293447
1293448
367752
1293449
367754
1293450
277643
1293451
367756
1293452
277644
97640
97641
97644
97646
122376
155146
155147
269874
269877
269879
368202
269912
269915
269917
286394
1294017
1294018
1294019
1294020
1294021
1294022
1294023
1294024
1294025
1294026
1294027
1294028
270134
270135
270139
286526
368457
130889
368458
368459
368461
368462
368463
368464
368466
368467
368468
368469
368470
368504
368507
368540
368541
368570
368571
1294311
1294312
1294313
1294314
1294315
1294316
294909
294911
)
;
    retiredPointMap 
249
(
475476 70116
475477 60853
475478 70536
475479 6830
475480 70395
475481 70541
475482 70543
475483 70544
475484 70347
475485 70442
475486 70398
475487 108257
475488 107463
475489 108265
475490 107588
475491 108275
475492 108278
475493 108279
475494 107579
475495 108286
475496 108290
475497 108305
475498 107464
475499 107313
475500 96497
475501 107878
475502 107270
475503 107859
475504 107883
475505 107865
475506 107871
475507 107877
475508 96498
475509 52690
475510 70115
475511 6685
475512 6688
475513 70117
475514 6585
475515 70118
475516 52727
475517 60920
475518 55542
475519 60858
475520 6693
475521 60852
475522 70396
475523 6829
475524 70394
475525 70537
475526 70538
475527 70406
475528 70539