/*--------------------------------*- C++ -*----------------------------------*\
| =========                 |                                                 |
| \\      /  F ield         | OpenFOAM: The Open Source CFD Toolbox           |
|  \\    /   O peration     | Version:  v1812                                 |
|   \\  /    A nd           | Web:      www.OpenFOAM.com                      |
|    \\/     M anipulation  |                                                 |
\*---------------------------------------------------------------------------*/
FoamFile
{
    version     2.0;
    format      ascii;
    class       regIOobject;
    location    "constant/polyMesh";
    object      faceZones;
}
// * * * * * * * * * * * * * * * * * * * * * * * * * * * * * * * * * * * * * //

18
(
i_backo_backMasterZone
{
    type faceZone;
faceLabels      List<label> 
2364
(
27629
27630
27631
27632
27633
27634
27635
27636
27637
27639
27640
27641
27642
27643
27767
27768
27836
27837
27967
29935
29936
29937
29938
29939
29940
29941
29942
29943
29944
29945
29946
29947
29948
29949
29999
30000
30001
30002
30003
30004
30005
30006
30007
30008
30009
30010
30011
30012
30013
30059
30060
30061
30062
30063
30064
30065
30066
30067
30068
30069
30070
30071
30072
30073
30119
30120
30121
30122
30123
30124
30125
30126
30127
30128
30129
30130
30131
30132
30133
30179
30180
30181
30182
30183
30184
30185
30186
30187
30188
30189
30190
30191
30192
30193
30235
30236
30237
30238
30239
30240
30241
30242
30243
30244
30245
30246
30247
30248
30249
30322
30323
30431
30432
30542
30543
30654
30655
30766
30767
30878
30879
31000
31001
31002
31003
31004
31006
31007
31008
31009
31010
31011
31012
31013
31014
31175
31176
31312
31313
31815
31816
31956
31957
32953
33055
33157
33259
33361
33463
35562
35563
38546
38547
50356
50451
50557
50663
50769
50875
50981
51087
52047
52048
52791
52792
52961
52962
52963
52964
52965
52967
52968
52969
52970
52971
52972
52973
52974
52975
53120
53121
53223
53224
53335
53336
53481
53482
53627
53628
53770
53771
53892
53893
53894
53895
53896
53897
53898
53899
53900
53902
53903
53904
53905
53906
54068
54069
54070
54071
54072
54073
54074
54075
54076
54077
54078
54079
54080
54081
54082
54172
54173
54174
54175
54176
54177
54178
54179
54180
54181
54182
54183
54184
54185
54186
54304
54305
54306
54307
54308
54309
54310
54311
54312
54313
54314
54315
54316
54317
54318
54440
54441
54442
54443
54444
54445
54446
54447
54448
54449
54450
54451
54452
54453
54454
54576
54577
54578
54579
54580
54581
54582
54583
54584
54585
54586
54587
54588
54589
54590
54712
54713
54714
54715
54716
54717
54718
54719
54720
54721
54722
54723
54724
54725
54726
54848
54849
54850
54851
54852
54853
54854
54855
54856
54857
54858
54859
54860
54861
54862
54976
54977
54978
54979
54980
54981
54982
54983
54984
54985
54986
54987
54988
54989
54990
55060
55061
55062
55063
55064
55065
55066
55067
55068
55069
55070
55071
55072
55073
55074
55075
55076
55077
55078
55079
55102
55103
55104
55105
55106
55107
55108
55109
55110
55111
55112
55113
55114
55115
55116
55117
55118
55119
55120
55121
55144
55145
55146
55147
55148
55149
55150
55151
55152
55153
55154
55155
55156
55157
55158
55159
55160
55161
55162
55163
55186
55187
55188
55189
55190
55191
55192
55193
55194
55195
55196
55197
55198
55199
55200
55201
55202
55203
55204
55205
55291
55292
55293
55294
55295
55296
55297
55298
55299
55300
55301
55302
55303
55304
55305
55306
55307
55308
55309
55310
55380
55381
55382
55383
55384
55385
55386
55387
55388
55389
55390
55391
55392
55393
55394
55395
55396
55397
55398
55399
55469
55470
55471
55472
55473
55474
55475
55476
55477
55478
55479
55480
55481
55482
55483
55484
55485
55486
55487
55488
55558
55559
55560
55561
55562
55563
55564
55565
55566
55567
55568
55569
55570
55571
55572
55573
55574
55575
55576
55577
55647
55648
55649
55650
55651
55652
55653
55654
55655
55656
55657
55658
55659
55660
55661
55684
55685
55686
55687
55688
55689
55690
55691
55692
55693
55694
55695
55696
55697
55698
55721
55722
55723
55724
55725
55726
55727
55728
55729
55730
55731
55732
55733
55734
55735
55758
55759
55760
55761
55762
55763
55764
55765
55766
55767
55768
55769
55770
55771
55772
55795
55796
55797
55798
55799
55800
55801
55802
55803
55804
55805
55806
55807
55808
55809
55832
55833
55834
55835
55836
55837
55838
55839
55840
55841
55842
55843
55844
55845
55846
55909
55910
55911
55912
55913
55914
55915
55916
55917
55918
55919
55920
55921
55922
55923
55979
55980
55981
55982
55983
55984
55985
55986
55987
55988
55989
55990
55991
55992
55993
71087
71524
71894
72264
72634
73004
73374
73745
74147
74148
76957
76958
77459
77460
78759
78760
81092
81111
81112
81123
81124
81417
83859
83865
85357
85358
85371
85372
85389
85390
85692
85693
85708
85709
85728
85729
86064
86065
86080
86081
86100
86101
86436
86437
86452
86453
86469
86470
86787
86788
88247
88248
88676
88677
88695
88713
88714
91725
91739
92095
92467
92839
93211
93583
93955
111637
111649
113142
113154
114668
114680
116194
116206
117720
117732
119246
119258
120772
120782
145878
146268
146659
147050
147441
147832
148223
148614
152035
152036
152056
152075
152076
152405
152406
152426
152427
154370
154371
154392
154393
154841
154860
154861
154872
154873
155123
155124
155142
155143
155155
155156
155440
155441
155458
155459
155470
155471
155755
155756
155773
155774
155785
155786
156067
156068
156082
156083
156094
156095
208595
210224
211761
213298
214835
216372
217909
219434
248250
248251
248252
248253
248254
248255
248256
248257
248258
248259
248260
248261
248262
248263
248264
248373
248374
248375
248376
248377
248378
248379
248380
248381
248382
248383
248384
248385
248386
248387
248477
248478
248479
248480
248481
248482
248483
248484
248485
248486
248487
248488
248489
248490
248491
248581
248582
248583
248584
248585
248586
248587
248588
248589
248590
248591
248592
248593
248594
248595
248685
248686
248687
248688
248689
248690
248691
248692
248693
248694
248695
248696
248697
248698
248699
248789
248790
248791
248792
248793
248794
248795
248796
248797
248798
248799
248800
248801
248802
248803
248883
248884
248885
248886
248887
248888
248889
248890
248891
248892
248893
248894
248895
248896
248897
248898
248899
248900
248901
248902
248986
248987
248988
248989
248990
248991
248992
248993
248994
248995
248996
248997
248998
248999
249000
249001
249002
249003
249004
249005
249070
249071
249072
249073
249074
249075
249076
249077
249078
249079
249080
249081
249082
249083
249084
249085
249086
249087
249088
249089
249154
249155
249156
249157
249158
249159
249160
249161
249162
249163
249164
249165
249166
249167
249168
249169
249170
249171
249172
249173
249238
249239
249240
249241
249242
249243
249244
249245
249246
249247
249248
249249
249250
249251
249252
249253
249254
249255
249256
249257
249321
249322
249323
249324
249325
249326
249327
249328
249329
249330
249331
249332
249333
249334
249335
249336
249337
249338
249339
249340
250366
250367
250368
250369
250370
250371
250372
250373
250374
250375
250376
250377
250378
250379
250380
250445
250446
250447
250448
250449
250450
250451
250452
250453
250454
250455
250456
250457
250458
250459
250460
250461
250462
250463
250464
250518
250519
250520
250521
250522
250523
250524
250525
250526
250527
250528
250529
250530
250531
250532
251168
251169
251170
251171
251172
251173
251174
251175
251176
251177
251178
251179
251180
251181
251182
251277
251278
251279
251280
251281
251282
251283
251284
251285
251286
251287
251288
251289
251290
251291
251292
251293
251294
251295
251296
251365
251366
251367
251368
251369
251370
251371
251372
251373
251374
251375
251376
251377
251378
251379
260654
260655
260664
260665
260677
260678
260820
260821
260832
260833
260845
260846
260989
260990
261003
261004
261014
261015
261157
261158
261171
261172
261182
261183
267147
267148
267149
267150
267151
267152
267153
267154
267155
267156
267157
267158
267159
267160
267161
267227
267228
267229
267230
267231
267232
267233
267234
267235
267236
267237
267238
267239
267240
267241
267294
267295
267296
267297
267298
267299
267300
267301
267302
267303
267304
267305
267306
267307
267308
267361
267362
267363
267364
267365
267366
267367
267368
267369
267370
267371
267372
267373
267374
267375
795717
795718
795719
795720
795721
795722
795723
795724
795725
795726
795727
795728
795729
795730
795731
795789
795790
795791
795792
795793
795794
795795
795796
795797
795798
795799
795800
795801
795802
795803
795858
795859
795860
795861
795862
795863
795864
795865
795866
795867
795868
795869
795870
795871
795872
795925
795926
795927
795928
795929
795930
795931
795932
795933
795934
795935
795936
795937
795938
795939
847710
847711
847712
847713
847714
847715
847716
847717
847718
847719
847720
847721
847722
847723
847724
847793
847794
847795
847796
847797
847798
847799
847800
847801
847802
847803
847804
847805
847806
847807
847859
847860
847861
847862
847863
847864
847865
847866
847867
847868
847869
847870
847871
847872
847873
847962
847963
847964
847965
847966
847967
847968
847969
847970
847971
847972
847973
847974
847975
847976
848046
848047
848048
848049
848050
848051
848052
848053
848054
848055
848056
848057
848058
848059
848060
848130
848131
848132
848133
848134
848135
848136
848137
848138
848139
848140
848141
848142
848143
848144
848213
848214
848215
848216
848217
848218
848219
848220
848221
848222
848223
848224
848225
848226
848227
848279
848280
848281
848282
848283
848284
848285
848286
848287
848288
848289
848290
848291
848292
848293
848294
848295
848296
848297
848298
848387
848388
848389
848390
848391
848392
848393
848394
848395
848396
848397
848398
848399
848400
848401
848402
848403
848404
848405
848406
848476
848477
848478
848479
848480
848481
848482
848483
848484
848485
848486
848487
848488
848489
848490
848491
848492
848493
848494
848495
848565
848566
848567
848568
848569
848570
848571
848572
848573
848574
848575
848576
848577
848578
848579
848580
848581
848582
848583
848584
848653
848654
848655
848656
848657
848658
848659
848660
848661
848662
848663
848664
848665
848666
848667
848668
848669
848670
848671
848672
848727
848728
848729
848730
848731
848732
848733
848734
848735
848736
848737
848738
848739
848740
848741
848866
848867
848868
848869
848870
848871
848872
848873
848874
848875
848876
848877
848878
848879
848880
848986
848987
848988
848989
848990
848991
848992
848993
848994
848995
848996
848997
848998
848999
849000
849106
849107
849108
849109
849110
849111
849112
849113
849114
849115
849116
849117
849118
849119
849120
849228
849229
849230
849231
849232
849234
849235
849236
849237
849238
849239
849240
849241
849242
849415
849416
849513
849514
849614
849615
849710
849711
849839
849840
849984
849985
854966
854967
855131
855132
855628
860594
860980
861365
863705
863706
863724
863725
863743
863744
864091
864092
864108
864109
864125
864126
865199
865592
865985
866378
877029
877072
877532
877569
877616
879129
879166
879213
880668
880705
880752
882207
882241
882287
890563
892178
893719
895260
909858
909859
909874
909875
909887
909888
910088
910089
910102
910103
910113
910114
910761
910762
910763
910764
910765
910766
910767
910768
910769
910770
910771
910772
910773
910774
910775
910861
910862
910863
910864
910865
910866
910867
910868
910869
910870
910871
910872
910873
910874
910875
910949
910950
910951
910952
910953
910954
910955
910956
910957
910958
910959
910960
910961
910962
910963
911050
911051
911052
911053
911054
911055
911056
911057
911058
911059
911060
911061
911062
911063
911064
911133
911134
911135
911136
911137
911138
911139
911140
911141
911142
911143
911144
911145
911146
911147
911199
911200
911201
911202
911203
911204
911205
911206
911207
911208
911209
911210
911211
911212
911213
911214
911215
911216
911217
911218
911306
911307
911308
911309
911310
911311
911312
911313
911314
911315
911316
911317
911318
911319
911320
911321
911322
911323
911324
911325
911380
911381
911382
911383
911384
911385
911386
911387
911388
911389
911390
911391
911392
911393
911394
911521
911522
911523
911524
911525
911526
911527
911528
911529
911530
911531
911532
911533
911534
911535
911715
911716
911819
911820
911878
912044
912045
913564
913565
915750
916177
916455
916923
916924
916925
916926
916927
916928
916929
916930
916931
916932
916933
916934
916935
916936
916937
916938
916939
916940
916941
916942
917014
917015
917016
917017
917018
917019
917020
917021
917022
917024
917025
917026
917027
917028
935094
935108
935501
946851
946852
946872
946873
946885
946886
946902
946903
947276
947660
951884
951917
951978
953498
957303
958985
961679
961680
961698
961699
961710
961711
961725
961726
962768
963165
982387
982425
982477
984021
984062
984104
990204
1042647
1042648
1042659
1042660
1042673
1042674
1042842
1042843
1042856
1042857
1042867
1042868
1217049
1217171
1218383
1218384
1218500
1218501
1218645
1218646
1218793
1218794
1218795
1218796
1218797
1218798
1218799
1218800
1218801
1218802
1218803
1218804
1218805
1218806
1218807
1218873
1218874
1218875
1218876
1218877
1218878
1218879
1218880
1218881
1218882
1218883
1218884
1218885
1218886
1218887
1219014
1219015
1219016
1219017
1219018
1219019
1219020
1219021
1219022
1219023
1219024
1219025
1219026
1219027
1219028
1219153
1219154
1219155
1219156
1219157
1219158
1219159
1219160
1219161
1219163
1219164
1219165
1219166
1219167
1219319
1219320
1219321
1219322
1219323
1219324
1219325
1219326
1219327
1219328
1219329
1219330
1219331
1219332
1219333
1219334
1219335
1219336
1219337
1219338
1219392
1219393
1219394
1219395
1219396
1219397
1219398
1219399
1219400
1219401
1219402
1219403
1219404
1219405
1219406
1219407
1219408
1219409
1219410
1219411
1219490
1219491
1219492
1219493
1219494
1219495
1219496
1219497
1219498
1219499
1219500
1219501
1219502
1219503
1219504
1219505
1219506
1219507
1219508
1219509
1219579
1219580
1219581
1219582
1219583
1219584
1219585
1219586
1219587
1219588
1219589
1219590
1219591
1219592
1219593
1219594
1219595
1219596
1219597
1219598
1219708
1219709
1219710
1219711
1219712
1219713
1219714
1219715
1219716
1219717
1219718
1219719
1219720
1219721
1219722
1219800
1219801
1219802
1219803
1219804
1219805
1219806
1219807
1219808
1219809
1219810
1219811
1219812
1219813
1219814
1219871
1219872
1219873
1219874
1219875
1219876
1219877
1219878
1219879
1219880
1219881
1219882
1219883
1219884
1219885
1219952
1219953
1219954
1219955
1219956
1219957
1219958
1219959
1219960
1219961
1219962
1219963
1219964
1219965
1219966
1220076
1220077
1220078
1220079
1220080
1220081
1220082
1220083
1220084
1220085
1220086
1220087
1220088
1220089
1220090
1220132
1220133
1220134
1220135
1220136
1220137
1220138
1220139
1220140
1220141
1220142
1220143
1220144
1220145
1220146
1228126
1228127
1228388
1228389
1228415
1238695
1238709
1239047
1243109
1243495
1243888
1245410
1245411
1245427
1245428
1245442
1245443
1245760
1245761
1245776
1245777
1245790
1245791
1253176
1254907
1261329
1261375
1262338
1262377
1262426
1263882
1263921
1263970
1265421
1265460
1265509
1291131
1291316
1309768
1309769
1309784
1309785
1309832
1309833
1309844
1309845
1309857
1309858
1935880
1935881
1936009
1936010
1936110
1936111
1936188
1936189
1936190
1936191
1936192
1936193
1936194
1936195
1936196
1936197
1936198
1936199
1936200
1936201
1936202
1936334
1936335
1936336
1936337
1936338
1936339
1936340
1936341
1936342
1936343
1936344
1936345
1936346
1936347
1936348
1936506
1936507
1936508
1936509
1936510
1936511
1936512
1936513
1936514
1936515
1936516
1936517
1936518
1936519
1936520
1936521
1936522
1936523
1936524
1936525
1936609
1936610
1936611
1936612
1936613
1936614
1936615
1936616
1936617
1936618
1936619
1936620
1936621
1936622
1936623
1936624
1936625
1936626
1936627
1936628
1936690
1936691
1936692
1936693
1936694
1936695
1936696
1936697
1936698
1936699
1936700
1936701
1936702
1936703
1936704
1936760
1936761
1936762
1936763
1936764
1936765
1936766
1936767
1936768
1936769
1936770
1936771
1936772
1936773
1936774
1937024
1937025
1937049
1937050
1937581
1937582
1937907
1941575
1944582
1944608
1944609
1946074
1946953
1949122
1951010
1951403
1962999
1963039
1963097
1964585
1964639
1964667
1981901
1982548
1982549
1982693
1982694
1982778
1982779
1982780
1982781
1982782
1982784
1982785
1982786
1982787
1982788
1982789
1982790
1982791
1982792
1982965
1982966
1982967
1982968
1982969
1982970
1982971
1982972
1982973
1982974
1982975
1982976
1982977
1982978
1982979
1983062
1983063
1983064
1983065
1983066
1983067
1983068
1983069
1983070
1983071
1983072
1983073
1983074
1983075
1983076
1983077
1983078
1983079
1983080
1983081
1983169
1983170
1983171
1983172
1983173
1983174
1983175
1983176
1983177
1983178
1983179
1983180
1983181
1983182
1983183
1983184
1983185
1983186
1983187
1983188
1983240
1983241
1983242
1983243
1983244
1983245
1983246
1983247
1983248
1983249
1983250
1983251
1983252
1983253
1983254
1983308
1983309
1983310
1983311
1983312
1983313
1983314
1983315
1983316
1983317
1983318
1983319
1983320
1983321
1983322
1994138
1994570
1995453
2009026
2009027
2009028
2009029
2009030
2009031
2009032
2009033
2009034
2009035
2009036
2009037
2009038
2009039
2009040
2009106
2009107
2009108
2009109
2009110
2009111
2009112
2009113
2009114
2009115
2009116
2009117
2009118
2009119
2009120
2023791
2024678
2025090
2025963
2025964
2025984
2025985
2026004
2026005
2026311
2026312
2026327
2026328
2026341
2026342
2047802
2047896
2049410
2049446
2049494
2097259
2097260
2097273
2097274
2097287
2097288
2097464
2097465
2097477
2097478
2097491
2097492
2097663
2097664
)
;
flipMap         List<bool> 2364{1};
}

i_backo_backSlaveZone
{
    type faceZone;
faceLabels      0();
flipMap         0();
}

i_backo_backCutFaceZone
{
    type faceZone;
faceLabels      List<label> 
9944
(
27624
27625
27626
27627
27628
27638
27644
27645
27646
27647
27648
27763
27764
27765
27766
27769
27770
27771
27833
27834
27835
27838
27839
27840
27841
27968
29009
29010
29011
29012
29023
29024
29025
29026
29038
29039
29040
29041
29517
29518
29519
29520
29531
29532
29533
29534
29930
29931
29932
29933
29934
29950
29951
29952
29953
29954
29994
29995
29996
29997
29998
30014
30015
30016
30017
30018
30054
30055
30056
30057
30058
30074
30075
30076
30077
30078
30114
30115
30116
30117
30118
30134
30135
30136
30137
30138
30174
30175
30176
30177
30178
30194
30195
30196
30197
30198
30230
30231
30232
30233
30234
30250
30251
30252
30253
30254
30319
30320
30321
30324
30325
30326
30327
30428
30429
30430
30433
30434
30435
30436
30539
30540
30541
30544
30545
30546
30547
30651
30652
30653
30656
30657
30658
30659
30763
30764
30765
30768
30769
30770
30771
30875
30876
30877
30880
30881
30882
30883
30995
30996
30997
30998
30999
31005
31015
31016
31017
31018
31019
31172
31173
31174
31177
31178
31179
31180
31309
31310
31311
31314
31315
31316
31317
31485
31486
31487
31488
31593
31594
31595
31596
31701
31702
31703
31704
31812
31813
31814
31817
31818
31819
31820
31953
31954
31955
31958
31959
31960
31961
32061
32062
32063
32064
32159
32160
32161
32162
32267
32268
32269
32270
32375
32376
32377
32378
32483
32484
32485
32486
32591
32592
32593
32594
32699
32700
32701
32702
32954
33056
33158
33260
33362
33464
34238
34239
34240
34241
34252
34253
34254
34255
34267
34268
34269
34270
34736
34737
34738
34739
34749
34750
34751
34752
34763
34764
34765
34766
35144
35145
35146
35147
35157
35158
35159
35160
35171
35172
35173
35174
35558
35559
35560
35561
35564
35565
35566
35581
35582
35583
35584
35595
35596
35597
35598
36137
36138
36139
36140
36151
36152
36153
36154
36165
36166
36167
36168
36577
36578
36579
36580
36590
36591
36592
36593
36604
36605
36606
36607
36961
36962
36963
36964
36974
36975
36976
36977
36988
36989
36990
36991
37345
37346
37347
37348
37358
37359
37360
37361
37372
37373
37374
37375
37729
37730
37731
37732
37742
37743
37744
37745
37756
37757
37758
37759
38115
38116
38117
38118
38129
38130
38131
38132
38143
38144
38145
38146
38542
38543
38544
38545
38548
38549
38550
38566
38567
38568
38569
38579
38580
38581
38582
39143
39144
39145
39146
39156
39157
39158
39159
39572
39573
39574
39575
39584
39585
39586
39587
39976
39977
39978
39979
39988
39989
39990
39991
40380
40381
40382
40383
40392
40393
40394
40395
40784
40785
40786
40787
40796
40797
40798
40799
41188
41189
41190
41191
41200
41201
41202
41203
41592
41593
41594
41595
41604
41605
41606
41607
47147
47148
47316
47317
47405
47406
47494
47495
47583
47584
47672
47673
47761
47762
47850
47851
47944
47945
48050
48051
48156
48157
48262
48263
48368
48369
48474
48475
48580
48581
48685
48686
48779
48780
48885
48886
48991
48992
49097
49098
49203
49204
49309
49310
49415
49416
49520
49521
49614
49615
49720
49721
49826
49827
49932
49933
50038
50039
50144
50145
50250
50251
50355
50450
50556
50662
50768
50874
50980
51086
51191
51192
51193
51194
51288
51289
51290
51291
51396
51397
51398
51399
51504
51505
51506
51507
51612
51613
51614
51615
51720
51721
51722
51723
51828
51829
51830
51831
51936
51937
51938
51939
52043
52044
52045
52046
52049
52050
52051
52140
52141
52142
52143
52248
52249
52250
52251
52356
52357
52358
52359
52464
52465
52466
52467
52572
52573
52574
52575
52680
52681
52682
52683
52788
52789
52790
52793
52794
52795
52796
52956
52957
52958
52959
52960
52966
52976
52977
52978
52979
52980
53116
53117
53118
53119
53122
53123
53124
53219
53220
53221
53222
53225
53226
53227
53331
53332
53333
53334
53337
53338
53339
53477
53478
53479
53480
53483
53484
53485
53623
53624
53625
53626
53629
53630
53631
53766
53767
53768
53769
53772
53773
53774
53887
53888
53889
53890
53891
53901
53907
53908
53909
53910
53911
54063
54064
54065
54066
54067
54083
54084
54085
54086
54087
54167
54168
54169
54170
54171
54187
54188
54189
54190
54191
54299
54300
54301
54302
54303
54319
54320
54321
54322
54323
54435
54436
54437
54438
54439
54455
54456
54457
54458
54459
54571
54572
54573
54574
54575
54591
54592
54593
54594
54595
54707
54708
54709
54710
54711
54727
54728
54729
54730
54731
54843
54844
54845
54846
54847
54863
54864
54865
54866
54867
54971
54972
54973
54974
54975
54991
54992
54993
54994
54995
55055
55056
55057
55058
55059
55080
55081
55082
55083
55084
55097
55098
55099
55100
55101
55122
55123
55124
55125
55126
55139
55140
55141
55142
55143
55164
55165
55166
55167
55168
55181
55182
55183
55184
55185
55206
55207
55208
55209
55210
55286
55287
55288
55289
55290
55311
55312
55313
55314
55315
55375
55376
55377
55378
55379
55400
55401
55402
55403
55404
55464
55465
55466
55467
55468
55489
55490
55491
55492
55493
55553
55554
55555
55556
55557
55578
55579
55580
55581
55582
55642
55643
55644
55645
55646
55662
55663
55664
55665
55666
55679
55680
55681
55682
55683
55699
55700
55701
55702
55703
55716
55717
55718
55719
55720
55736
55737
55738
55739
55740
55753
55754
55755
55756
55757
55773
55774
55775
55776
55777
55790
55791
55792
55793
55794
55810
55811
55812
55813
55814
55827
55828
55829
55830
55831
55847
55848
55849
55850
55851
55904
55905
55906
55907
55908
55924
55925
55926
55927
55928
55974
55975
55976
55977
55978
55994
55995
55996
55997
55998
58986
58987
58988
58989
59000
59001
59399
59400
59411
59412
59789
59790
59801
59802
60189
60190
60201
60202
60589
60590
60601
60602
60989
60990
61001
61002
61389
61390
61401
61402
61789
61790
61801
61802
61803
61804
62182
62183
62193
62194
62195
62196
62206
62207
62583
62584
62593
62594
62605
62606
62949
62950
62959
62960
62971
62972
63315
63316
63325
63326
63337
63338
63681
63682
63691
63692
63703
63704
64047
64048
64057
64058
64069
64070
64413
64414
64423
64424
64435
64436
64780
64781
64790
64791
64802
64803
64804
64805
65150
65151
65161
65162
65163
65164
65174
65175
65551
65552
65561
65562
65573
65574
65917
65918
65927
65928
65939
65940
66283
66284
66293
66294
66305
66306
66649
66650
66659
66660
66671
66672
67015
67016
67025
67026
67037
67038
67381
67382
67391
67392
67403
67404
67748
67749
67758
67759
67770
67771
67772
67773
68118
68119
68129
68130
68131
68132
68142
68143
68519
68520
68529
68530
68541
68542
68885
68886
68895
68896
68907
68908
69251
69252
69261
69262
69273
69274
69617
69618
69627
69628
69639
69640
69983
69984
69993
69994
70005
70006
70349
70350
70359
70360
70371
70372
70716
70717
70726
70727
70738
70739
71088
71099
71100
71101
71102
71113
71114
71115
71116
71525
71534
71535
71536
71537
71548
71549
71550
71551
71895
71904
71905
71906
71907
71918
71919
71920
71921
72265
72274
72275
72276
72277
72288
72289
72290
72291
72635
72644
72645
72646
72647
72658
72659
72660
72661
73005
73014
73015
73016
73017
73028
73029
73030
73031
73375
73384
73385
73386
73387
73398
73399
73400
73401
73746
73756
73757
73758
73759
73770
73771
73772
73773
74124
74125
74126
74127
74143
74144
74145
74146
74149
74150
74151
74167
74168
74169
74170
74687
74688
74689
74690
74699
74700
74701
74702
74713
74714
74715
74716
75059
75060
75061
75062
75071
75072
75073
75074
75085
75086
75087
75088
75431
75432
75433
75434
75443
75444
75445
75446
75457
75458
75459
75460
75803
75804
75805
75806
75815
75816
75817
75818
75829
75830
75831
75832
76175
76176
76177
76178
76187
76188
76189
76190
76201
76202
76203
76204
76547
76548
76549
76550
76559
76560
76561
76562
76573
76574
76575
76576
76921
76922
76923
76924
76935
76936
76937
76938
76954
76955
76956
76959
76960
76961
76962
77436
77437
77438
77439
77455
77456
77457
77458
77461
77462
77463
77480
77481
77482
77483
77980
77981
77982
77983
77992
77993
77994
77995
78006
78007
78008
78009
78352
78353
78354
78355
78364
78365
78366
78367
78378
78379
78380
78381
78724
78725
78726
78727
78736
78737
78738
78739
78756
78757
78758
78761
78762
78763
78764
81088
81089
81090
81091
81093
81094
81095
81096
81108
81109
81110
81113
81114
81115
81116
81120
81121
81122
81125
81126
81127
81128
81411
81412
81418
81419
81420
81431
81432
81433
81434
82562
82563
82564
82565
82576
82577
82578
82579
82582
82583
82584
82585
82611
82612
82613
82614
82623
82624
82625
82626
82632
82633
82634
82635
82661
82662
82663
82664
82675
82676
82677
82678
82681
82682
82683
82684
83849
83850
83858
83864
83866
83867
83876
83877
83878
83879
83905
83906
83907
83908
83921
83922
83923
83924
83930
83931
83932
83933
83956
83957
83958
83959
83971
83972
83973
83974
83976
83977
83978
83979
85353
85354
85355
85356
85359
85360
85361
85368
85369
85370
85373
85374
85375
85376
85385
85386
85387
85388
85391
85392
85393
85688
85689
85690
85691
85694
85695
85696
85705
85706
85707
85710
85711
85712
85713
85724
85725
85726
85727
85730
85731
85732
86060
86061
86062
86063
86066
86067
86068
86077
86078
86079
86082
86083
86084
86085
86096
86097
86098
86099
86102
86103
86104
86432
86433
86434
86435
86438
86439
86440
86449
86450
86451
86454
86455
86456
86457
86465
86466
86467
86468
86471
86472
86473
86769
86770
86771
86772
86783
86784
86785
86786
86789
86790
86791
86801
86802
86803
86804
87214
87215
87216
87217
87222
87223
87224
87225
87233
87234
87235
87236
87574
87575
87576
87577
87582
87583
87584
87585
87593
87594
87595
87596
87932
87933
87934
87935
87940
87941
87942
87943
87949
87950
87951
87952
88243
88244
88245
88246
88249
88250
88251
88262
88263
88264
88265
88274
88275
88276
88277
88672
88673
88674
88675
88678
88679
88680
88691
88692
88693
88694
88696
88697
88698
88699
88709
88710
88711
88712
88715
88716
88717
89049
89050
89051
89052
89065
89066
89067
89068
89074
89075
89076
89077
89401
89402
89403
89404
89409
89410
89411
89412
89421
89422
89423
89424
89795
89796
89797
89798
89803
89804
89805
89806
89815
89816
89817
89818
90189
90190
90191
90192
90197
90198
90199
90200
90209
90210
90211
90212
90583
90584
90585
90586
90591
90592
90593
90594
90603
90604
90605
90606
90977
90978
90979
90980
90985
90986
90987
90988
90997
90998
90999
91000
91370
91371
91372
91373
91378
91379
91380
91381
91387
91388
91389
91390
91726
91734
91735
91740
91741
91742
91752
91753
91754
91755
92084
92085
92096
92097
92098
92104
92105
92106
92107
92456
92457
92468
92469
92470
92476
92477
92478
92479
92828
92829
92840
92841
92842
92848
92849
92850
92851
93200
93201
93212
93213
93214
93220
93221
93222
93223
93572
93573
93584
93585
93586
93592
93593
93594
93595
93944
93945
93956
93957
93958
93964
93965
93966
93967
95190
95191
95192
95193
95200
95201
95202
95203
95208
95209
95210
95211
95239
95240
95241
95242
95250
95251
95252
95253
95259
95260
95261
95262
95292
95293
95294
95295
95299
95300
95301
95302
95312
95313
95314
95315
96614
96615
96616
96617
96624
96625
96626
96627
96632
96633
96634
96635
96662
96663
96664
96665
96672
96673
96674
96675
96680
96681
96682
96683
96710
96711
96712
96713
96717
96718
96719
96720
96730
96731
96732
96733
98153
98154
98155
98156
98163
98164
98165
98166
98171
98172
98173
98174
98201
98202
98203
98204
98211
98212
98213
98214
98219
98220
98221
98222
98249
98250
98251
98252
98256
98257
98258
98259
98269
98270
98271
98272
99688
99689
99690
99691
99698
99699
99700
99701
99706
99707
99708
99709
99736
99737
99738
99739
99743
99744
99745
99746
99756
99757
99758
99759
100845
100846
100847
100848
100856
100857
100858
100859
100865
100866
100867
100868
100895
100896
100897
100898
100910
100911
100912
100913
100918
100919
100920
100921
100949
100950
100951
100952
100956
100957
100958
100959
100969
100970
100971
100972
102514
102515
102516
102517
102524
102525
102526
102527
102532
102533
102534
102535
102562
102563
102564
102565
102574
102575
102576
102577
102583
102584
102585
102586
102613
102614
102615
102616
102620
102621
102622
102623
102633
102634
102635
102636
104089
104090
104091
104092
104099
104100
104101
104102
104107
104108
104109
104110
104137
104138
104139
104140
104149
104150
104151
104152
104158
104159
104160
104161
104188
104189
104190
104191
104195
104196
104197
104198
104208
104209
104210
104211
105664
105665
105666
105667
105674
105675
105676
105677
105682
105683
105684
105685
105712
105713
105714
105715
105724
105725
105726
105727
105733
105734
105735
105736
105763
105764
105765
105766
105770
105771
105772
105773
105783
105784
105785
105786
107239
107240
107241
107242
107249
107250
107251
107252
107257
107258
107259
107260
107287
107288
107289
107290
107299
107300
107301
107302
107308
107309
107310
107311
107338
107339
107340
107341
107345
107346
107347
107348
107358
107359
107360
107361
108818
108819
108820
108821
108829
108830
108831
108832
108838
108839
108840
108841
108871
108872
108873
108874
108883
108884