/*--------------------------------*- C++ -*----------------------------------*\
| =========                 |                                                 |
| \\      /  F ield         | OpenFOAM: The Open Source CFD Toolbox           |
|  \\    /   O peration     | Version:  v1812                                 |
|   \\  /    A nd           | Web:      www.OpenFOAM.com                      |
|    \\/     M anipulation  |                                                 |
\*---------------------------------------------------------------------------*/
FoamFile
{
    version     2.0;
    format      ascii;
    class       polyTopoChanger;
    location    "constant/polyMesh";
    object      meshModifiers;
}
// * * * * * * * * * * * * * * * * * * * * * * * * * * * * * * * * * * * * * //

1
(
couple0
{
    type            slidingInterface;
    masterFaceZoneName i_tip_twoo_tip_twoMasterZone;
    slaveFaceZoneName i_tip_twoo_tip_twoSlaveZone;
    cutPointZoneName i_tip_twoo_tip_twoCutPointZone;
    cutFaceZoneName i_tip_twoo_tip_twoCutFaceZone;
    masterPatchName i_tip_two;
    slavePatchName  o_tip_two;
    typeOfMatch     integral;
    coupleDecouple  true;
    projection      visible;
    attached        true;
    active          true;
    masterFaceCells List<label> 
1200
(
837368
837388
837408
837428
837448
837468
837488
837508
837528
837548
837369
837389
837409
837429
837449
837469
837489
837509
837529
837549
837370
837390
837410
837430
837450
837470
837490
837510
837530
837550
837371
837391
837411
837431
837451
837471
837491
837511
837531
837551
837372
837392
837412
837432
837452
837472
837492
837512
837532
837552
837373
837393
837413
837433
837453
837473
837493
837513
837533
837553
837374
837394
837414
837434
837454
837474
837494
837514
837534
837554
837375
837395
837415
837435
837455
837475
837495
837515
837535
837555
837376
837396
837416
837436
837456
837476
837496
837516
837536
837556
837377
837397
837417
837437
837457
837477
837497
837517
837537
837557
837378
837398
837418
837438
837458
837478
837498
837518
837538
837558
837379
837399
837419
837439
837459
837479
837499
837519
837539
837559
837380
837400
837420
837440
837460
837480
837500
837520
837540
837560
837381
837401
837421
837441
837461
837481
837501
837521
837541
837561
837382
837402
837422
837442
837462
837482
837502
837522
837542
837562
837383
837403
837423
837443
837463
837483
837503
837523
837543
837563
837384
837404
837424
837444
837464
837484
837504
837524
837544
837564
837385
837405
837425
837445
837465
837485
837505
837525
837545
837565
837386
837406
837426
837446
837466
837486
837506
837526
837546
837566
837387
837407
837427
837447
837467
837487
837507
837527
837547
837567
837668
837678
837688
837698
837708
837718
837728
837738
837748
837758
837669
837679
837689
837699
837709
837719
837729
837739
837749
837759
837670
837680
837690
837700
837710
837720
837730
837740
837750
837760
837671
837681
837691
837701
837711
837721
837731
837741
837751
837761
837672
837682
837692
837702
837712
837722
837732
837742
837752
837762
837673
837683
837693
837703
837713
837723
837733
837743
837753
837763
837674
837684
837694
837704
837714
837724
837734
837744
837754
837764
837675
837685
837695
837705
837715
837725
837735
837745
837755
837765
837676
837686
837696
837706
837716
837726
837736
837746
837756
837766
837677
837687
837697
837707
837717
837727
837737
837747
837757
837767
837868
837878
837888
837898
837908
837918
837928
837938
837948
837958
837869
837879
837889
837899
837909
837919
837929
837939
837949
837959
837870
837880
837890
837900
837910
837920
837930
837940
837950
837960
837871
837881
837891
837901
837911
837921
837931
837941
837951
837961
837872
837882
837892
837902
837912
837922
837932
837942
837952
837962
837873
837883
837893
837903
837913
837923
837933
837943
837953
837963
837874
837884
837894
837904
837914
837924
837934
837944
837954
837964
837875
837885
837895
837905
837915
837925
837935
837945
837955
837965
837876
837886
837896
837906
837916
837926
837936
837946
837956
837966
837877
837887
837897
837907
837917
837927
837937
837947
837957
837967
838068
838078
838088
838098
838108
838118
838128
838138
838148
838158
838069
838079
838089
838099
838109
838119
838129
838139
838149
838159
838070
838080
838090
838100
838110
838120
838130
838140
838150
838160
838071
838081
838091
838101
838111
838121
838131
838141
838151
838161
838072
838082
838092
838102
838112
838122
838132
838142
838152
838162
838073
838083
838093
838103
838113
838123
838133
838143
838153
838163
838074
838084
838094
838104
838114
838124
838134
838144
838154
838164
838075
838085
838095
838105
838115
838125
838135
838145
838155
838165
838076
838086
838096
838106
838116
838126
838136
838146
838156
838166
838077
838087
838097
838107
838117
838127
838137
838147
838157
838167
838268
838278
838288
838298
838308
838318
838328
838338
838348
838358
838269
838279
838289
838299
838309
838319
838329
838339
838349
838359
838270
838280
838290
838300
838310
838320
838330
838340
838350
838360
838271
838281
838291
838301
838311
838321
838331
838341
838351
838361
838272
838282
838292
838302
838312
838322
838332
838342
838352
838362
838273
838283
838293
838303
838313
838323
838333
838343
838353
838363
838274
838284
838294
838304
838314
838324
838334
838344
838354
838364
838275
838285
838295
838305
838315
838325
838335
838345
838355
838365
838276
838286
838296
838306
838316
838326
838336
838346
838356
838366
838277
838287
838297
838307
838317
838327
838337
838347
838357
838367
838568
838588
838608
838628
838648
838668
838688
838708
838728
838748
838569
838589
838609
838629
838649
838669
838689
838709
838729
838749
838570
838590
838610
838630
838650
838670
838690
838710
838730
838750
838571
838591
838611
838631
838651
838671
838691
838711
838731
838751
838572
838592
838612
838632
838652
838672
838692
838712
838732
838752
838573
838593
838613
838633
838653
838673
838693
838713
838733
838753
838574
838594
838614
838634
838654
838674
838694
838714
838734
838754
838575
838595
838615
838635
838655
838675
838695
838715
838735
838755
838576
838596
838616
838636
838656
838676
838696
838716
838736
838756
838577
838597
838617
838637
838657
838677
838697
838717
838737
838757
838578
838598
838618
838638
838658
838678
838698
838718
838738
838758
838579
838599
838619
838639
838659
838679
838699
838719
838739
838759
838580
838600
838620
838640
838660
838680
838700
838720
838740
838760
838581
838601
838621
838641
838661
838681
838701
838721
838741
838761
838582
838602
838622
838642
838662
838682
838702
838722
838742
838762
838583
838603
838623
838643
838663
838683
838703
838723
838743
838763
838584
838604
838624
838644
838664
838684
838704
838724
838744
838764
838585
838605
838625
838645
838665
838685
838705
838725
838745
838765
838586
838606
838626
838646
838666
838686
838706
838726
838746
838766
838587
838607
838627
838647
838667
838687
838707
838727
838747
838767
838868
838878
838888
838898
838908
838918
838928
838938
838948
838958
838869
838879
838889
838899
838909
838919
838929
838939
838949
838959
838870
838880
838890
838900
838910
838920
838930
838940
838950
838960
838871
838881
838891
838901
838911
838921
838931
838941
838951
838961
838872
838882
838892
838902
838912
838922
838932
838942
838952
838962
838873
838883
838893
838903
838913
838923
838933
838943
838953
838963
838874
838884
838894
838904
838914
838924
838934
838944
838954
838964
838875
838885
838895
838905
838915
838925
838935
838945
838955
838965
838876
838886
838896
838906
838916
838926
838936
838946
838956
838966
838877
838887
838897
838907
838917
838927
838937
838947
838957
838967
839068
839078
839088
839098
839108
839118
839128
839138
839148
839158
839069
839079
839089
839099
839109
839119
839129
839139
839149
839159
839070
839080
839090
839100
839110
839120
839130
839140
839150
839160
839071
839081
839091
839101
839111
839121
839131
839141
839151
839161
839072
839082
839092
839102
839112
839122
839132
839142
839152
839162
839073
839083
839093
839103
839113
839123
839133
839143
839153
839163
839074
839084
839094
839104
839114
839124
839134
839144
839154
839164
839075
839085
839095
839105
839115
839125
839135
839145
839155
839165
839076
839086
839096
839106
839116
839126
839136
839146
839156
839166
839077
839087
839097
839107
839117
839127
839137
839147
839157
839167
839268
839278
839288
839298
839308
839318
839328
839338
839348
839358
839269
839279
839289
839299
839309
839319
839329
839339
839349
839359
839270
839280
839290
839300
839310
839320
839330
839340
839350
839360
839271
839281
839291
839301
839311
839321
839331
839341
839351
839361
839272
839282
839292
839302
839312
839322
839332
839342
839352
839362
839273
839283
839293
839303
839313
839323
839333
839343
839353
839363
839274
839284
839294
839304
839314
839324
839334
839344
839354
839364
839275
839285
839295
839305
839315
839325
839335
839345
839355
839365
839276
839286
839296
839306
839316
839326
839336
839346
839356
839366
839277
839287
839297
839307
839317
839327
839337
839347
839357
839367
839468
839478
839488
839498
839508
839518
839528
839538
839548
839558
839469
839479
839489
839499
839509
839519
839529
839539
839549
839559
839470
839480
839490
839500
839510
839520
839530
839540
839550
839560
839471
839481
839491
839501
839511
839521
839531
839541
839551
839561
839472
839482
839492
839502
839512
839522
839532
839542
839552
839562
839473
839483
839493
839503
839513
839523
839533
839543
839553
839563
839474
839484
839494
839504
839514
839524
839534
839544
839554
839564
839475
839485
839495
839505
839515
839525
839535
839545
839555
839565
839476
839486
839496
839506
839516
839526
839536
839546
839556
839566
839477
839487
839497
839507
839517
839527
839537
839547
839557
839567
)
;
    slaveFaceCells  List<label> 
512
(
392001
392012
392019
392026
392031
392006
391996
410884
392013
391997
410933
392020
410872
392014
392027
410879
411032
411081
410894
410896
410892
410971
410974
410969
411020
411023
411018
411069
411072
411067
411104
411107
411102
410927
410932
410928
410856
410862
410860
410888
410889
392000
410976
410981
410978
410863
410869
410867
410937
410939
392007
411025
411030
411027
410871
410876
410874
410986
410988
410984
411074
411079
411076
410878
410883
410881
411035
411037
411033
411084
411086
411082
415636
415624
415626
415643
415660
415674
415622
415642
416015
415655
415656
416106
415669
415670
416204
415623
415649
415648
415661
415663
415662
415675
415677
415676
416011
416013
416009
415969
415971
415967
415983
415985
415981
416057
416062
416059
416177
416181
416178
416275
416279
416276
415954
415957
415952
416051
416055
416050
416014
416020
416018
416143
416146
416141
416148
416153
416150
416105
416111
416109
416241
416244
416239
416246
416251
416248
416203
416209
416207
415961
415964
415959
416101
416104
416099
416092
416097
416094
416185
416188
416184
416199
416202
416198
416191
416195
416192
416283
416286
416282
416297
416300
416296
416289
416293
416290
416690
416707
416721
416697
416714
416728
416733
416679
416696
416695
416708
416710
416709
416722
416724
416723
416680
416703
416702
416715
416717
416716
416729
416731
416730
416734
416848
416853
416850
416968
416972
416969
417066
417070
417067
416897
416902
416899
417017
417021
417018
417115
417119
417116
417150
417154
417151
416787
416790
416785
416892
416895
416890
416883
416888
416885
416976
416979
416975
416990
416993
416989
416982
416986
416983
417074
417077
417073
417088
417091
417087
417080
417084
417081
416794
416797
416792
416941
416944
416939
416932
416937
416934
417025
417028
417024
417039
417042
417038
417031
417035
417032
417123
417126
417122
417137
417140
417136
417129
417133
417130
417157
417161
417158
622704
625496
625517
625522
625519
625495
625501
625499
633803
633810
633817
633824
633505
633809
633808
633506
633816
633815
633507
633823
633822
633508
633825
633830
635236
635241
635238
635285
635290
635287
635334
635339
635336
635383
635388
635385
634178
634181
634176
635280
635283
635278
635271
635276
635273
634185
634188
634183
635329
635332
635327
635320
635325
635322
634192
634195
634190
635378
635381
635376
635369
635374
635371
634198
634202
634197
635392
635395
635390
635425
635430
635426
636106
636113
636138
636161
636120
636145
636168
636129
636154
636176
636107
636109
636108
636133
636134
636114
636116
636115
636139
636141
636140
636162
643260
636156
636121
636123
636122
636146
636148
636147
636169
643269
646876
636124
635607
636130
636149
635610
636155
636171
635613
646925
646478
646482
646479
646527
646531
646528
646702
646706
646703
646864
646867
646862
646576
646580
646577
646751
646755
646752
646913
646916
646911
646638
646643
646640
646813
646818
646815
646968
646972
646967
646486
646489
646485
646500
646503
646499
646492
646496
646493
646668
646671
646667
646675
646678
646674
646535
646538
646534
646549
646552
646548
646541
646545
646542
646710
646713
646709
646724
646727
646723
646716
646720
646717
646869
646874
646871
643262
643265
643263
646829
646831
646827
646584
646587
646583
646598
646601
646597
646590
646594
646591
646759
646762
646758
646773
646776
646772
646765
646769
646766
646918
646923
646920
643268
643273
643271
646879
646881
646877
646603
646608
646605
643235
643238
643233
646647
646650
646645
646778
646783
646780
643256
643259
643254
646822
646825
646820
646932
646937
646934
643275
643280
643278
646928
646930
646926
)
;
    masterStickOutFaces List<label> 
3016
(
1302748
1302750
1302754
1302755
1302760
1302846
1302847
1302851
1302852
1302886
1302888
2089447
1950254
1950255
1950269
2089568
1303230
1303231
1303234
1303235
2040517
1303238
1303239
2040520
2040521
1303241
1303243
1303251
1303253
1303266
1303269
1303271
1303273
1991432
1991433
1303306
1303307
1991436
1991439
1991440
1303339
1303340
1975175
1295311
1295314
1295315
1303659
1303660
1303663
1303664
1975429
1975430
1975433
1303690
1303691
1975436
1975437
1975438
1975439
1975440
1975445
1975446
1975447
1975448
1975449
1303709
1975454
1975455
1991865
1991868
1991871
1991872
1303798
1303801
1303802
1303839
1303841
1303844
1222003
1222004
1254846
1254849
1254850
1943017
1943019
1943021
1238630
1238631
1238633
1238637
1238638
1238644
1238645
1238648
1238651
1238652
1304230
1304231
1304257
1304258
1304283
1124064
1124065
1124066
1124071
1124072
1124073
1124074
1124077
1124080
1124081
1124082
1124083
1124086
1124089
1124090
1304332
1304374
1304376
1304377
1304384
1304385
1304388
1304427
1304440
1976192
1976193
1304449
1976194
1976209
1976210
1976211
1976225
1976226
1976227
1976229
1238983
1976264
1976265
1238986
1238989
1238990
1976303
1976304
1976346
1976349
1173592
1304664
1173594
1173597
1976455
1976456
1968268
1976461
1976462
1968270
1968272
1968275
1968276
1976495
1976496
1976501
1976502
1976540
1976541
1976546
1976547
2009324
2009325
1173754
1173756
1173759
2009405
2009406
1304899
2009424
2009426
2009435
2009451
2009453
2009454
2009456
2009457
2009479
2009480
2009492
2009493
1935795
1935797
1935799
1935802
1935803
2009596
1935910
1935913
1935916
1935917
2640449
2640451
2640453
2640455
2640457
2640459
2640461
2640463
2640465
2640467
2640469
2640471
2640473
2640475
2640477
2640479
2640481
2640483
2640485
2640487
2640489
1239658
2640491
2009709
2640493
2640495
2640497
2640499
2640501
2640503
2640505
2640507
2640509
2640511
2640513
2640515
2640517
2640519
1239688
2640521
1239690
2640523
2640525
2640527
2640529
2640531
2640533
2640535
2640537
2640539
2640541
2640543
2640545
2640547
2640549
2640551
2640553
1239722
2640555
1239724
2640557
2640559
2640561
2640563
2640565
2640567
2640569
2640571
2640573
2640575
2640577
2640579
2640581
2640583
2640585
2640587
2640589
2640591
2640593
2640595
2640597
2640599
2640601
2640603
2640605
2640607
2640609
2640611
2640613
2640615
2640617
2009834
2640619
2640621
2640623
2640625
2640627
2640629
2640631
2640633
2640635
2640637
2640639
2640641
2640643
2640645
2640647
2640649
2640651
2640653
2640655
2640657
2640659
2640661
2640663
2640665
2640667
1968924
1968925
2640669
2640671
1968928
2640673
1968929
1968930
2640675
2640677
1968933
1968934
2640679
1968935
2640681
1968938
2640683
1968939
1968940
2640685
1968941
2640687
1968943
1952577
1952580
1952581
1968970
1968973
1985363
1985364
2009960
2009963
2009964
2567106
2567107
2567108
2567109
2567110
2567111
2567112
2567113
2567114
2567115
2567116
2567117
2567118
2567119
2567120
2567121
2567122
2567123
2567124
2567125
2567126
2567127
2567128
2567129
2567130
2567131
2567132
2567133
2567134
2567135
2567136
2567137
2567138
2567139
2567140
2567141
2567142
2567143
2567144
2567145
2567146
2567147
2567148
2567149
2567150
2567151
2567152
2567153
2567154
2567155
2567156
2567157
2567158
2567159
2567160
2567161
2567162
2567163
2010108
2567164
2567165
2567166
2010111
2567167
2010112
2567168
2567169
2567170
2567171
2567172
2567173
2567174
2567175
2567176
2567177
2567178
2567179
2567180
2567181
2567182
2567183
2567184
2567185
2567186
2567187
2567188
2567189
2567190
2567191
2567192
2567193
2567194
2567195
2567196
2567197
2567198
2567199
2567200
2567201
2567202
2567203
2567204
2567205
2567206
2567207
2567208
2567209
2567210
2567211
2567212
2567213
2567214
2567215
2567216
2567217
2567218
2567219
2567220
2567221
2567222
2567223
2567224
2567225
2567226
2567227
2567228
2567229
2567230
2567231
2567232
2567233
2567234
2567235
2567236
2567237
2567238
2567239
2567240
2567241
2567242
2567243
2567244
2567245
2567246
2567247
2567248
2567249
2567250
2567251
2567252
2567253
2567254
2567255
2567256
2567257
2567258
2567259
2567260
2567261
2018398
2567262
2567263
2567264
2567265
2567266
2567267
2567268
2567269
2567270
2567271
2567272
2567273
2567274
2567275
2567276
2567277
2567278
2567279
2567280
2567281
2567282
1297523
2567283
2567284
2567285
1297526
2567286
2567287
2567288
2567289
2567290
2567291
2567292
2567293
2567294
2567295
2567296
2567297
2567298
2567299
2567300
2567301
2567302
2567303
2567304
2567305
2567306
2567307
2567308
2567309
2567310
2567311
2567312
2567313
2567314
2567315
2567316
2567317
2567318
2567319
2567320
2567321
2567322
2567323
2567324
2567325
2567326
2567327
2567328
2567329
2567330
2567331
2567332
2567333
2567334
2010279
2567335
2567336
2567337
2010282
2567338
2010283
2567339
2567340
2567341
1297582
2567342
2567343
2567344
2567345
2567346
2567347
2567348
2567349
2567350
2567351
2567352
2567353
2567354
2567355
2567356
2567357
2567358
2567359
2567360
2567361
2567362
2567363
2567364
2567365
2567366
2567367
2567368
2567369
2567370
2567371
2567372
2567373
2567374
2567375
2567376
2567377
2567378
2567379
2567380
2567381
2567382
2567383
2567384
2567385
2567386
2567387
2567388
2567389
2567390
2567391
2567392
2567393
2567394
2567395
2567396
2567397
2567398
2567399
2567400
2567401
2567402
2567403
2567404
2567405
2567406
2567407
2567408
2567409
2567410
2567411
2567412
2567413
2567414
2567415
2567416
2567417
2567418
2567419
2567420
2567421
2567422
2567423
2567424
2567425
2567426
2567427
2567428
2567429
2567430
2567431
2567432
2567433
2567434
2567435
2567436
2567437
2567438
2567439
2567440
2567441
2567442
2567443
2567444
2567445
2567446
2567447
2567448
2567449
2567450
2567451
2567452
2567453
2567454
2567455
2567456
2567457
2567458
2567459
2567460
2567461
2567462
2567463
2567464
2567465
2567466
2567467
2567468
2567469
2567470
2567471
2567472
2567473
2567474
2567475
2567476
2567477
2567478
2567479
2567480
2567481
2567482
2567483
2567484
2567485
2567486
2567487
2567488
2567489
2567490
2567491
2567492
2567493
2567494
2567495
1969526
1969527
1969530
1969533
1969534
1142183
1142186
1142187
1142218
1142221
1142222
1936862
1936864
1936865
1142256
1142259
1142260
2018819
1306179
1306180
1306182
1306190
1306191
1150543
1306192
1150544
1306201
1306209
1306210
1306211
2567786
2567787
2567788
2567789
2567790
2567791
2567792
2567793
2567794
2567795
2567796
2567797
2567798
2567799
2567800
2567801
2567802
2567803
2567804
2567805
2567806
2567807
2567808
2567809
2567810
2567811
2567812
2567813
2567814
2567815
2567816
2567817
2567818
2567819
2567820
2567821
1306254
2567822
1306255
2567823
2567824
2567825
1306258
2567826
1306259
2567827
2567828
2567829
1306262
2567830
1306263
2567831
2567832
2567833
2567834
2567835
2567836
2567837
2567838
2567839
2567840
2567841
2567842
2567843
2567844
2567845
2567846
2567847
2567848
2567849
2567850
2567851
2567852
2567853
2567854
2567855
2567856
2567857
2567858
2567859
2567860
2567861
2567862
2567863
2567864
2567865
2567866
2567867
2567868
2567869
2567870
2567871
2567872
2567873
1150657
2567874
1150658
2567875
1306308
2567876
1306309
2567877
2567878
2567879
2567880
2567881
2567882
2567883
2567884
2567885
2567886
2567887
2567888
2567889
2567890
2567891
2567892
2567893
2567894
2567895
2567896
2567897
2567898
2567899
2567900
2567901
2567902
2567903
2567904
2019041
2567905
2567906
2019043
2567907
2567908
2019045
2567909
1306342
2567910
1306343
2567911
2567912
2567913
2567914
2567915
2567916
2567917
2567918
2567919
2567920
2567921
2567922
2567923
2567924
2567925
2567926
2567927
2567928
2567929
2567930
2567931
2567932
2567933
2567934
2567935
2567936
2567937
2567938
2567939
2567940
2567941
2567942
2567943
2567944
2567945
2567946
2567947
2567948
2567949
2567950
2567951
2567952
2567953
2567954
2567955
2567956
2567957
2567958
2567959
2567960
2567961
2567962
2567963
2567964
2567965
2567966
2567967
2567968
2567969
2567970
2567971
2567972
2567973
2567974
2567975
1224498
1224499
1224501
1224505
1224506
2019156
2019158
2019160
2019178
1290129
1290155
1290183
1290185
1290186
1290188
1290189
1290208
1290210
1290211
1290213
1290214
1290230
1290231
1290232
1241089
1241092
1241093
1290246
1290247
1290259
1970238
1970239
1306694
1306695
2568266
2568267
2568268
2568269
2568270
2568271
2568272
1151056
2568273
2568274
2568275
1151059
2568276
1151060
2568277
2568278
2568279
2568280
2568281
2568282
2568283
2568284
2568285
2568286
2568287
2568288
1306721
1970273
2568289
1306722
1970274
2568290
2568291
2568292
2568293
2568294
2568295
2568296
2568297
2568298
2568299
2568300
2568301
2568302
2568303
2568304
2568305
2568306
2568307
2568308
2568309
2568310
2568311
2568312
2568313
2568314
2568315
2568316
2568317
2568318
2568319
2568320
2568321
2568322
2568323
1290371
1970308
2568324
1970309
2568325
2568326
2568327
2568328
2568329
2568330
2568331
2568332
2568333
2568334
2568335
2568336
2568337
2568338
2568339
2568340
2568341
2568342
2568343
2568344
2568345
2568346
2568347
2568348
2568349
2568350
2568351
2568352
2568353
2568354
2568355
2568356
2568357
2568358
1970343
2568359
1970344
2568360
2568361
2568362
1970347
2568363
1970348
2568364
2568365
2568366
1970351
2568367
2568368
2568369
2568370
2568371
2568372
2568373
2568374
2568375
2568376
2568377
2568378
2568379
2568380
2568381
2568382
2568383
2568384
2568385
2568386
2568387
2568388
2568389
2568390
2568391
2568392
2568393
2568394
2568395
2568396
2568397
2568398
2568399
2568400
2568401
2568402
2568403
2568404
2568405
2568406
2568407
2568408
2568409
2568410
2568411
2568412
2568413
2568414
1151198
2568415
2568416
2568417
1151201
2568418
1151202
2568419
2568420
2568421
2568422
2568423
2568424
2568425
2568426
2568427
2568428
2568429
2568430
2568431
2568432
2568433
2568434
2568435
2568436
1306869
2568437
2568438
1306871
2568439
1306872
2568440
2568441
2568442
2568443
2568444
1306877
1970429
2568445
1306878
2568446
2568447
1970432
2568448
1306881
2568449
2568450
2568451
2568452
2568453
2568454
2568455
1290506
1306900
1306902
1224985
1224986
1306907
1224988
1224992
1224993
1970477
1970478
1970481
1970482
2036063
1241439
1241442
1241443
1978729
1978730
2036084
2036086
2036088
1290629
1290631
1290633
1151369
1151370
1151373
1151374
2019740
2019741
2019744
2019745
1978840
1978841
1978871
1290757
1290759
1290761
1290762
1217042
1217043
1217046
1217049
1217050
2568746
2568747
2568748
2568749
2568750
2568751
2568752
2568753
2568754
2568755
2568756
2568757
2568758
2568759
2568760
1978937
2568761
1978938
2568762
2568763
2568764
2568765
2568766
2568767
2568768
2568769
2568770
2568771
2568772
2568773
2568774
2568775
2568776
2568777
2568778
2568779
2568780
2568781
2568782
2568783
2568784
1290833
2568785
2568786
2568787
2568788
1290836
2568789
1290837
2568790
2568791
2568792
2568793
2568794
2568795
2568796
2568797
2568798
2568799
2568800
2568801
2568802
2568803
2568804
2568805
2568806
2568807
2568808
2568809
2568810
2568811
2568812
2568813
2568814
2568815
2568816
2568817
2568818
2568819
2568820
2568821
2568822
2568823
2568824
2568825
2568826
2568827
2568828
2568829
2568830
2568831
2568832
2568833
2568834
2568835
1979012
2568836
2568837
2568838
2568839
2568840
2568841
2568842
2568843
2568844
1217164
2568845
1217165
2568846
2568847
2568848
1217168
2568849
2568850
2568851
1217171
2568852
1217172
2568853
2568854
2568855
2568856
2568857
2568858
2568859
2568860
2568861
2568862
2568863
2568864
2568865
2568866
2568867
2568868
2568869
2568870
2568871
2568872
2568873
2568874
2568875
2568876
2568877
1127085
2568878
2568879
2568880
2568881
2568882
2568883
2568884
1127092
2568885
2568886
2568887
2568888
2568889
2568890
2568891
2568892
2568893
2568894
2568895
2568896
2568897
2568898
2568899
2568900
2568901
2568902
2568903
2568904
2568905
2568906
2568907
2568908
2568909
2568910
2568911
1979088
2568912
2568913
2568914
2568915
2568916
2568917
2568918
2568919
2568920
2568921
2568922
2568923
2568924
2568925
2568926
2568927
2568928
2568929
2568930
2568931
2568932
2568933
2568934
2568935
1946359
1946361
1946364
1946365
1291018
1291021
1291022
1979166
2020128
2020131
2020132
1979196
1979197
1979199
1979203
1979204
1979311
1979314
1979315
1979318
1979319
1946599
1946600
1946603
1946604
2569226
2569227
2569228
2569229
2569230
2569231
2569232
2569233
2569234
2569235
2569236
2569237
2569238
2569239
2569240
2569241
2569242
2569243
2569244
2569245
2569246
2569247
2569248
2569249
2569250
2569251
2569252
2569253
2569254
2569255
2569256
2569257
2569258
2569259
2569260
2569261
2569262
2569263
2569264
2569265
2569266
2569267
2569268
2569269
2569270
2569271
2569272
2569273
2569274
2569275
2569276
2569277
2569278
2569279
2569280
1971265
2569281
1971266
2569282
2569283
2569284
2569285
2569286
2569287
2569288
2569289
2569290
2569291
2569292
2569293
2569294
2569295
2569296
2569297
2569298
2569299
2569300
2569301
2569302
2569303
2569304
2569305
2569306
2094171
2569307
2569308
2569309
2569310
2569311
2569312
2569313
2569314
2094179
2569315
2094180
2569316
2094181
2569317
2569318
2569319
2569320
2094185
2569321
2569322
2569323
2569324
2569325
2569326
2569327
2094192
2569328
2094193
2569329
2094194
2569330
2569331
2569332
2569333
2569334
2569335
2569336
2569337
2569338
2569339
2569340
2569341
2569342
2569343
2569344
2569345
2569346
2569347
2569348
2569349
2569350
2569351
2569352
2569353
2569354
2569355
2569356
2569357
2094222
2569358
2569359
2569360
2569361
2569362
2569363
2569364
2569365
2094230
2569366
2094231
2569367
2094232
2569368
2569369
2569370
2569371
2094236
2569372
2569373
2569374
2569375
2569376
2569377
2569378
2094243
2569379
2094244
2569380
2094245
2569381
2569382
2569383
2569384
2569385
2569386
2569387
2569388
2569389
2569390
2569391
2569392
2569393
2569394
2569395
2569396
2569397
2569398
2569399
2569400
2569401
2569402
2569403
2569404
2569405
2094270
2569406
2569407
2569408
2569409
2569410
2569411
2569412
2569413
2094278
2569414
2094279
2569415
2094280
2094290
2094291
2094292
1291569
1291571
1291573
1291591
1291593
1291595
1946984
1946987
1946988
1971840
1971841
1971867
1971868
1971894
1971895
1971921
1971922
1971925
1971926
2569996
2569997
2569998
2569999
2570000
2570001
2570002
2570003
2570004
2570005
2570006
2570007
2570008
2570009
2570010
2570011
2570012
2570013
2570014
2570015
2570016
2570017
2570018
2570019
2570020
2570021
2570022
2570023
2570024
2570025
2570026
2570027
2570028
2570029
2570030
2570031
2570032
2570033
2570034
2570035
2570036
2570037
2570038
2570039
2570040
2570041
2570042
2570043
2570044
2570045
2570046
2570047
2570048
2570049
2570050
2570051
2570052
2570053
2570054
2570055
2570056
2570057
2570058
2570059
1972043
2570060
2570061
2570062
2570063
2570064
2570065
2570066
2570067
2570068
2570069
2570070
2570071
2570072
2570073
2570074
2570075
2570076
2570077
2570078
2570079
2570080
2570081
2570082
2570083
2570084
2570085
2570086
2570087
2570088
2570089
2570090
2570091
2570092
2570093
2570094
2570095
2570096
2570097
2570098
2570099
2570100
2570101
2570102
2570103
2570104
2570105
2570106
1972091
2570107
2570108
2570109
1972093
2570110
1972094
2570111
2570112
2570113
2570114
1972099
2570115
1972100
2570116
2570117
2570118
1972103
2570119
2570120
2570121
2570122
2570123
2570124
2570125
2570126
2570127
2570128
2570129
2570130
2570131
2570132
2570133
2570134
2570135
2570136
2570137
1972122
2570138
2570139
1972124
2570140
2570141
2570142
2570143
2570144
1972129
2570145
1972130
2570146
2570147
2570148
1972133
2570149
2570150
2570151
2570152
2570153
2570154
2570155
2570156
2570157
2570158
2570159
2570160
2570161
2570162
2570163
2570164
2570165
1972150
2570166
2570167
1972152
2570168
2570169
2570170
2570171
2570172
1972157
2570173
1972158
2570174
2570175
2570176
1972161
2570177
2570178
2570179
2570180
2570181
2570182
2570183
2570184
2570185
2570186
2570187
2570188
2570189
2570190
2570191
2570192
2570193
1972178
2570194
2570195
2570196
2570197
2570198
1972183
2570199
2570200
2570201
2570202
2570203
2570204
2570205
2570206
2570207
2570208
2570209
2570210
2570211
2570212
2570213
2570214
2570215
2570216
2570217
2570218
2570219
2570220
2570221
2570222
2570223
2570224
2570225
2570226
2570227
2570228
2570229
2570230
2570231
2570232
2570233
2570234
2570235
2570236
2570237
2570238
2570239
2570240
2570241
2570242
2570243
2570244
2570245
2570246
1939462
2570247
1939463
2570248
1939464
2570249
2570250
2570251
2570252
2570253
1939469
2570254
1939470
2570255
2570256
2570257
2570258
2570259
2570260
2570261
2570262
2570263
2570264
2570265
2570266
2570267
2570268
2570269
2570270
2570271
1128479
2570272
2570273
1128481
2570274
2570275
1128483
2570276
2570277
2570278
2570279
2570280
2570281
2570282
2570283
2570284
2570285
2570286
2570287
2570288
2570289
2570290
2570291
2570292
1972276
2570293
2570294
2570295
1972279
2570296
1972280
2570297
2570298
2570299
2570300
2570301
2570302
2570303