/*--------------------------------*- C++ -*----------------------------------*\
| =========                 |                                                 |
| \\      /  F ield         | OpenFOAM: The Open Source CFD Toolbox           |
|  \\    /   O peration     | Version:  v1812                                 |
|   \\  /    A nd           | Web:      www.OpenFOAM.com                      |
|    \\/     M anipulation  |                                                 |
\*---------------------------------------------------------------------------*/
FoamFile
{
    version     2.0;
    format      ascii;
    class       regIOobject;
    location    "constant/polyMesh";
    object      pointZones;
}
// * * * * * * * * * * * * * * * * * * * * * * * * * * * * * * * * * * * * * //

6
(
i_backo_backCutPointZone
{
    type pointZone;
pointLabels     List<label> 
6550
(
919233
919234
919235
919236
919237
919238
919239
919240
919241
919242
919243
919244
919245
919246
919247
919248
919249
919250
919251
919252
919253
919254
919255
919256
919257
919258
919259
919260
919261
919262
919263
919264
919265
919266
919267
919268
919269
919270
919271
919272
919273
919274
919275
919276
919277
919278
919279
919280
919281
919282
919283
919284
919285
919286
919287
919288
919289
919290
919291
919292
919293
919294
919295
919296
919297
919298
919299
919300
919301
919302
919303
919304
919305
919306
919307
919308
919309
919310
919311
919312
919313
919314
919315
919316
919317
919318
919319
919320
919321
919322
919323
919324
919325
919326
919327
919328
919329
919330
919331
919332
919333
919334
919335
919336
919337
919338
919339
919340
919341
919342
919343
919344
919345
919346
919347
919348
919349
919350
919351
919352
919353
919354
919355
919356
919357
919358
919359
919360
919361
919362
919363
919364
919365
919366
919367
919368
919369
919370
919371
919372
919373
919374
919375
919376
919377
919378
919379
919380
919381
919382
919383
919384
919385
919386
919387
919388
919389
919390
919391
919392
919393
919394
919395
919396
919397
919398
919399
919400
919401
919402
919403
919404
919405
919406
919407
919408
919409
919410
919411
919412
919413
919414
919415
919416
919417
919418
919419
919420
919421
919422
919423
919424
919425
919426
919427
919428
919429
919430
919431
919432
919433
919434
919435
919436
919437
919438
919439
919440
919441
919442
919443
919444
919445
919446
919447
919448
919449
919450
919451
919452
919453
919454
919455
919456
919457
919458
919459
919460
919461
919462
919463
919464
919465
919466
919467
919468
919469
919470
919471
919472
919473
919474
919475
919476
919477
919478
919479
919480
919481
919482
919483
919484
919485
919486
919487
919488
919489
919490
919491
919492
919493
919494
919495
919496
919497
919498
919499
919500
919501
919502
919503
919504
919505
919506
919507
919508
919509
919510
919511
919512
919513
919514
919515
919516
919517
919518
919519
919520
919521
919522
919523
919524
919525
919526
919527
919528
919529
919530
919531
919532
919533
919534
919535
919536
919537
919538
919539
919540
919541
919542
919543
919544
919545
919546
919547
919548
919549
919550
919551
919552
919553
919554
919555
919556
919557
919558
919559
919560
919561
919562
919563
919564
919565
919566
919567
919568
919569
919570
919571
919572
919573
919574
919575
919576
919577
919578
919579
919580
919581
919582
919583
919584
919585
919586
919587
919588
919589
919590
919591
919592
919593
919594
919595
919596
919597
919598
919599
919600
919601
919602
919603
919604
919605
919606
919607
919608
919609
919610
919611
919612
919613
919614
919615
919616
919617
919618
919619
919620
919621
919622
919623
919624
919625
919626
919627
919628
919629
919630
919631
919632
919633
919634
919635
919636
919637
919638
919639
919640
919641
919642
919643
919644
919645
919646
919647
919648
919649
919650
919651
919652
919653
919654
919655
919656
919657
919658
919659
919660
919661
919662
919663
919664
919665
919666
919667
919668
919669
919670
919671
919672
919673
919674
919675
919676
919677
919678
919679
919680
919681
919682
919683
919684
919685
919686
919687
919688
919689
919690
919691
919692
919693
919694
919695
919696
919697
919698
919699
919700
919701
919702
919703
919704
919705
919706
919707
919708
919709
919710
919711
919712
919713
919714
919715
919716
919717
919718
919719
919720
919721
919722
919723
919724
919725
919726
919727
919728
919729
919730
919731
919732
919733
919734
919735
919736
919737
919738
919739
919740
919741
919742
919743
919744
919745
919746
919747
919748
919749
919750
919751
919752
919753
919754
919755
919756
919757
919758
919759
919760
919761
919762
919763
919764
919765
919766
919767
919768
919769
919770
919771
919772
919773
919774
919775
919776
919777
919778
919779
919780
919781
919782
919783
919784
919785
919786
919787
919788
919789
919790
919791
919792
919793
919794
919795
919796
919797
919798
919799
919800
919801
919802
919803
919804
919805
919806
919807
919808
919809
919810
919811
919812
919813
919814
919815
919816
919817
919818
919819
919820
919821
919822
919823
919824
919825
919826
919827
919828
919829
919830
919831
919832
919833
919834
919835
919836
919837
919838
919839
919840
919841
919842
919843
919844
919845
919846
919847
919848
919849
919850
919851
919852
919853
919854
919855
919856
919857
919858
919859
919860
919861
919862
919863
919864
919865
919866
919867
919868
919869
919870
919871
919872
919873
919874
919875
919876
919877
919878
919879
919880
919881
919882
919883
919884
919885
919886
919887
919888
919889
919890
919891
919892
919893
919894
919895
919896
919897
919898
919899
919900
919901
919902
919903
919904
919905
919906
919907
919908
919909
919910
919911
919912
919913
919914
919915
919916
919917
919918
919919
919920
919921
919922
919923
919924
919925
919926
919927
919928
919929
919930
919931
919932
919933
919934
919935
919936
919937
919938
919939
919940
919941
919942
919943
919944
919945
919946
919947
919948
919949
919950
919951
919952
919953
919954
919955
919956
919957
919958
919959
919960
919961
919962
919963
919964
919965
919966
919967
919968
919969
919970
919971
919972
919973
919974
919975
919976
919977
919978
919979
919980
919981
919982
919983
919984
919985
919986
919987
919988
919989
919990
919991
919992
919993
919994
919995
919996
919997
919998
919999
920000
920001
920002
920003
920004
920005
920006
920007
920008
920009
920010
920011
920012
920013
920014
920015
920016
920017
920018
920019
920020
920021
920022
920023
920024
920025
920026
920027
920028
920029
920030
920031
920032
920033
920034
920035
920036
920037
920038
920039
920040
920041
920042
920043
920044
920045
920046
920047
920048
920049
920050
920051
920052
920053
920054
920055
920056
920057
920058
920059
920060
920061
920062
920063
920064
920065
920066
920067
920068
920069
920070
920071
920072
920073
920074
920075
920076
920077
920078
920079
920080
920081
920082
920083
920084
920085
920086
920087
920088
920089
920090
920091
920092
920093
920094
920095
920096
920097
920098
920099
920100
920101
920102
920103
920104
920105
920106
920107
920108
920109
920110
920111
920112
920113
920114
920115
920116
920117
920118
920119
920120
920121
920122
920123
920124
920125
920126
920127
920128
920129
920130
920131
920132
920133
920134
920135
920136
920137
920138
920139
920140
920141
920142
920143
920144
920145
920146
920147
920148
920149
920150
920151
920152
920153
920154
920155
920156
920157
920158
920159
920160
920161
920162
920163
920164
920165
920166
920167
920168
920169
920170
920171
920172
920173
920174
920175
920176
920177
920178
920179
920180
920181
920182
920183
920184
920185
920186
920187
920188
920189
920190
920191
920192
920193
920194
920195
920196
920197
920198
920199
920200
920201
920202
920203
920204
920205
920206
920207
920208
920209
920210
920211
920212
920213
920214
920215
920216
920217
920218
920219
920220
920221
920222
920223
920224
920225
920226
920227
920228
920229
920230
920231
920232
920233
920234
920235
920236
920237
920238
920239
920240
920241
920242
920243
920244
920245
920246
920247
920248
920249
920250
920251
920252
920253
920254
920255
920256
920257
920258
920259
920260
920261
920262
920263
920264
920265
920266
920267
920268
920269
920270
920271
920272
920273
920274
920275
920276
920277
920278
920279
920280
920281
920282
920283
920284
920285
920286
920287
920288
920289
920290
920291
920292
920293
920294
920295
920296
920297
920298
920299
920300
920301
920302
920303
920304
920305
920306
920307
920308
920309
920310
920311
920312
920313
920314
920315
920316
920317
920318
920319
920320
920321
920322
920323
920324
920325
920326
920327
920328
920329
920330
920331
920332
920333
920334
920335
920336
920337
920338
920339
920340
920341
920342
920343
920344
920345
920346
920347
920348
920349
920350
920351
920352
920353
920354
920355
920356
920357
920358
920359
920360
920361
920362
920363
920364
920365
920366
920367
920368
920369
920370
920371
920372
920373
920374
920375
920376
920377
920378
920379
920380
920381
920382
920383
920384
920385
920386
920387
920388
920389
920390
920391
920392
920393
920394
920395
920396
920397
920398
920399
920400
920401
920402
920403
920404
920405
920406
920407
920408
920409
920410
920411
920412
920413
920414
920415
920416
920417
920418
920419
920420
920421
920422
920423
920424
920425
920426
920427
920428
920429
920430
920431
920432
920433
920434
920435
920436
920437
920438
920439
920440
920441
920442
920443
920444
920445
920446
920447
920448
920449
920450
920451
920452
920453
920454
920455
920456
920457
920458
920459
920460
920461
920462
920463
920464
920465
920466
920467
920468
920469
920470
920471
920472
920473
920474
920475
920476
920477
920478
920479
920480
920481
920482
920483
920484
920485
920486
920487
920488
920489
920490
920491
920492
920493
920494
920495
920496
920497
920498
920499
920500
920501
920502
920503
920504
920505
920506
920507
920508
920509
920510
920511
920512
920513
920514
920515
920516
920517
920518
920519
920520
920521
920522
920523
920524
920525
920526
920527
920528
920529
920530
920531
920532
920533
920534
920535
920536
920537
920538
920539
920540
920541
920542
920543
920544
920545
920546
920547
920548
920549
920550
920551
920552
920553
920554
920555
920556
920557
920558
920559
920560
920561
920562
920563
920564
920565
920566
920567
920568
920569
920570
920571
920572
920573
920574
920575
920576
920577
920578
920579
920580
920581
920582
920583
920584
920585
920586
920587
920588
920589
920590
920591
920592
920593
920594
920595
920596
920597
920598
920599
920600
920601
920602
920603
920604
920605
920606
920607
920608
920609
920610
920611
920612
920613
920614
920615
920616
920617
920618
920619
920620
920621
920622
920623
920624
920625
920626
920627
920628
920629
920630
920631
920632
920633
920634
920635
920636
920637
920638
920639
920640
920641
920642
920643
920644
920645
920646
920647
920648
920649
920650
920651
920652
920653
920654
920655
920656
920657
920658
920659
920660
920661
920662
920663
920664
920665
920666
920667
920668
920669
920670
920671
920672
920673
920674
920675
920676
920677
920678
920679
920680
920681
920682
920683
920684
920685
920686
920687
920688
920689
920690
920691
920692
920693
920694
920695
920696
920697
920698
920699
920700
920701
920702
920703
920704
920705
920706
920707
920708
920709
920710
920711
920712
920713
920714
920715
920716
920717
920718
920719
920720
920721
920722
920723
920724
920725
920726
920727
920728
920729
920730
920731
920732
920733
920734
920735
920736
920737
920738
920739
920740
920741
920742
920743
920744
920745
920746
920747
920748
920749
920750
920751
920752
920753
920754
920755
920756
920757
920758
920759
920760
920761
920762
920763
920764
920765
920766
920767
920768
920769
920770
920771
920772
920773
920774
920775
920776
920777
920778
920779
920780
920781
920782
920783
920784
920785
920786
920787
920788
920789
920790
920791
920792
920793
920794
920795
920796
920797
920798
920799
920800
920801
920802
920803
920804
920805
920806
920807
920808
920809
920810
920811
920812
920813
920814
920815
920816
920817
920818
920819
920820
920821
920822
920823
920824
920825
920826
920827
920828
920829
920830
920831
920832
920833
920834
920835
920836
920837
920838
920839
920840
920841
920842
920843
920844
920845
920846
920847
920848
920849
920850
920851
920852
920853
920854
920855
920856
920857
920858
920859
920860
920861
920862
920863
920864
920865
920866
920867
920868
920869
920870
920871
920872
920873
920874
920875
920876
920877
920878
920879
920880
920881
920882
920883
920884
920885
920886
920887
920888
920889
920890
920891
920892
920893
920894
920895
920896
920897
920898
920899
920900
920901
920902
920903
920904
920905
920906
920907
920908
920909
920910
920911
920912
920913
920914
920915
920916
920917
920918
920919
920920
920921
920922
920923
920924
920925
920926
920927
920928
920929
920930
920931
920932
920933
920934
920935
920936
920937
920938
920939
920940
920941
920942
920943
920944
920945
920946
920947
920948
920949
920950
920951
920952
920953
920954
920955
920956
920957
920958
920959
920960
920961
920962
920963
920964
920965
920966
920967
920968
920969
920970
920971
920972
920973
920974
920975
920976
920977
920978
920979
920980
920981
920982
920983
920984
920985
920986
920987
920988
920989
920990
920991
920992
920993
920994
920995
920996
920997
920998
920999
921000
921001
921002
921003
921004
921005
921006
921007
921008
921009
921010
921011
921012
921013
921014
921015
921016
921017
921018
921019
921020
921021
921022
921023
921024
921025
921026
921027
921028
921029
921030
921031
921032
921033
921034
921035
921036
921037
921038
921039
921040
921041
921042
921043
921044
921045
921046
921047
921048
921049
921050
921051
921052
921053
921054
921055
921056
921057
921058
921059
921060
921061
921062
921063
921064
921065
921066
921067
921068
921069
921070
921071
921072
921073
921074
921075
921076
921077
921078
921079
921080
921081
921082
921083
921084
921085
921086
921087
921088
921089
921090
921091
921092
921093
921094
921095
921096
921097
921098
921099
921100
921101
921102
921103
921104
921105
921106
921107
921108
921109
921110
921111
921112
921113
921114
921115
921116
921117
921118
921119
921120
921121
921122
921123
921124
921125
921126
921127
921128
921129
921130
921131
921132
921133
921134
921135
921136
921137
921138
921139
921140
921141
921142
921143
921144
921145
921146
921147
921148
921149
921150
921151
921152
921153
921154
921155
921156
921157
921158
921159
921160
921161
921162
921163
921164
921165
921166
921167
921168
921169
921170
921171
921172
921173
921174
921175
921176
921177
921178
921179
921180
921181
921182
921183
921184
921185
921186
921187
921188
921189
921190
921191
921192
921193
921194
921195
921196
921197
921198
921199
921200
921201
921202
921203
921204
921205
921206
921207
921208
921209
921210
921211
921212
921213
921214
921215
921216
921217
921218
921219
921220
921221
921222
921223
921224
921225
921226
921227
921228
921229
921230
921231
921232
921233
921234
921235
921236
921237
921238
921239
921240
921241
921242
921243
921244
921245
921246
921247
921248
921249
921250
921251
921252
921253
921254
921255
921256
921257
921258
921259
921260
921261
921262
921263
921264
921265
921266
921267
921268
921269
921270
921271
921272
921273
921274
921275
921276
921277
921278
921279
921280
921281
921282
921283
921284
921285
921286
921287
921288
921289
921290
921291
921292
921293
921294
921295
921296
921297
921298
921299
921300
921301
921302
921303
921304
921305
921306
921307
921308
921309
921310
921311
921312
921313
921314
921315
921316
921317
921318
921319
921320
921321
921322
921323
921324
921325
921326
921327
921328
921329
921330
921331
921332
921333
921334
921335
921336
921337
921338
921339
921340
921341
921342
921343
921344
921345
921346
921347
921348
921349
921350
921351
921352
921353
921354
921355
921356
921357
921358
921359
921360
921361
921362
921363
921364
921365
921366
921367
921368
921369
921370
921371
921372
921373
921374
921375
921376
921377
921378
921379
921380
921381
921382
921383
921384
921385
921386
921387
921388
921389
921390
921391
921392
921393
921394
921395
921396
921397
921398
921399
921400
921401
921402
921403
921404
921405
921406
921407
921408
921409
921410
921411
921412
921413
921414
921415
921416
921417
921418
921419
921420
921421
921422
921423
921424
921425
921426
921427
921428
921429
921430
921431
921432
921433
921434
921435
921436
921437
921438
921439
921440
921441
921442
921443
921444
921445
921446
921447
921448
921449
921450
921451
921452
921453
921454
921455
921456
921457
921458
921459
921460
921461
921462
921463
921464
921465
921466
921467
921468
921469
921470
921471
921472
921473
921474
921475
921476
921477
921478
921479
921480
921481
921482
921483
921484
921485
921486
921487
921488
921489
921490
921491
921492
921493
921494
921495
921496
921497
921498
921499
921500
921501
921502
921503
921504
921505
921506
921507
921508
921509
921510
921511
921512
921513
921514
921515
921516
921517
921518
921519
921520
921521
921522
921523
921524
921525
921526
921527
921528
921529
921530
921531
921532
921533
921534
921535
921536
921537
921538
921539
921540
921541
921542
921543
921544
921545
921546
921547
921548
921549
921550
921551
921552
921553
921554
921555
921556
921557
921558
921559
921560
921561
921562
921563
921564
921565
921566
921567
921568
921569
921570
921571
921572
921573
921574
921575
921576
921577
921578
921579
921580
921581
921582
921583
921584
921585
921586
921587
921588
921589
921590
921591
921592
921593
921594
921595
921596
921597
921598
921599
921600
921601
921602
921603
921604
921605
921606
921607
921608
921609
921610
921611
921612
921613
921614
921615
921616
921617
921618
921619
921620
921621
921622
921623
921624
921625
921626
921627
921628
921629
921630
921631
921632
921633
921634
921635
921636
921637
921638
921639
921640
921641
921642
921643
921644
921645
921646
921647
921648
921649
921650
921651
921652
921653
921654
921655
921656
921657
921658
921659
921660
921661
921662
921663
921664
921665
921666
921667
921668
921669
921670
921671
921672
921673
921674
921675
921676
921677
921678
921679
921680
921681
921682
921683
921684
921685
921686
921687
921688
921689
921690
921691
921692
921693
921694
921695
921696
921697
921698
921699
921700
921701
921702
921703
921704
921705
921706
921707
921708
921709
921710
921711
921712
921713
921714
921715
921716
921717
921718
921719
921720
921721
921722
921723
921724
921725
921726
921727
921728
921729
921730
921731
921732
921733
921734
921735
921736
921737
921738
921739
921740
921741
921742
921743
921744
921745
921746
921747
921748
921749
921750
921751
921752
921753
921754
921755
921756
921757
921758
921759
921760
921761
921762
921763
921764
921765
921766
921767
921768
921769
921770
921771
921772
921773
921774
921775
921776
921777
921778
921779
921780
921781
921782
921783
921784
921785
921786
921787
921788
921789
921790
921791
921792
921793
921794
921795
921796
921797
921798
921799
921800
921801
921802
921803
921804
921805
921806
921807
921808
921809
921810
921811
921812
921813
921814
921815
921816
921817
921818
921819
921820
921821
921822
921823
921824
921825
921826
921827
921828
921829
921830
921831
921832
921833
921834
921835
921836
921837
921838
921839
921840
921841
921842
921843
921844
921845
921846
921847
921848
921849
921850
921851
921852
921853
921854
921855
921856
921857
921858
921859
921860
921861
921862
921863
921864
921865
921866
921867
921868
921869
921870
921871
921872
921873
921874
921875
921876
921877
921878
921879
921880
921881
921882
921883
921884
921885
921886
921887
921888
921889
921890
921891
921892
921893
921894
921895
921896
921897
921898
921899
921900
921901
921902
921903
921904
921905
921906
921907
921908
921909
921910
921911
921912
921913
921914
921915
921916
921917
921918
921919
921920
921921
921922
921923
921924
921925
921926
921927
921928
921929
921930
921931
921932
921933
921934
921935
921936
921937
921938
921939
921940
921941
921942
921943
921944
921945
921946
921947
921948
921949
921950
921951
921952
921953
921954
921955
921956
921957
921958
921959
921960
921961
921962
921963
921964
921965
921966
921967
921968
921969
921970
921971
921972
921973
921974
921975
921976
921977
921978
921979
921980
921981
921982
921983
921984
921985
921986
921987
921988
921989
921990
921991
921992
921993
921994
921995
921996
921997
921998
921999
922000
922001
922002
922003
922004
922005
922006
922007
922008
922009
922010
922011
922012
922013
922014
922015
922016
922017
922018
922019
922020
922021
922022
922023
922024
922025
922026
922027
922028
922029
922030
922031
922032
922033
922034
922035
922036
922037
922038
922039
922040
922041
922042
922043
922044
922045
922046
922047
922048
922049
922050
922051
922052
922053
922054
922055
922056
922057
922058
922059
922060
922061
922062
922063
922064
922065
922066
922067
922068
922069
922070
922071
922072
922073
922074
922075
922076
922077
922078
922079
922080
922081
922082
922083
922084
922085
922086
922087
922088
922089
922090
922091
922092
922093
922094
922095
922096
922097
922098
922099
922100
922101
922102
922103
922104
922105
922106
922107
922108
922109
922110
922111
922112
922113
922114
922115
922116
922117
922118
922119
922120
922121
922122
922123
922124
922125
922126
922127
922128
922129
922130
922131
922132
922133
922134
922135
922136
922137
922138
922139
922140
922141
922142
922143
922144
922145
922146
922147
922148
922149
922150
922151
922152
922153
922154
922155
922156
922157
922158
922159
922160
922161
922162
922163
922164
922165
922166
922167
922168
922169
922170
922171
922172
922173
922174
922175
922176
922177
922178
922179
922180
922181
922182
922183
922184
922185
922186
922187
922188
922189
922190
922191
922192
922193
922194
922195
922196
922197
922198
922199
922200
922201
922202
922203
922204
922205
922206
922207
922208
922209
922210
922211
922212
922213
922214
922215
922216
922217
922218
922219
922220
922221
922222
922223
922224
922225
922226
922227
922228
922229
922230
922231
922232
922233
922234
922235
922236
922237
922238
922239
922240
922241
922242
922243
922244
922245
922246
922247
922248
922249
922250
922251
922252
922253
922254
922255
922256
922257
922258
922259
922260
922261
922262
922263
922264
922265
922266
922267
922268
922269
922270
922271
922272
922273
922274
922275
922276
922277
922278
922279
922280
922281
922282
922283
922284
922285
922286
922287
922288
922289
922290
922291
922292
922293
922294
922295
922296
922297
922298
922299
922300
922301
922302
922303
922304
922305
922306
922307
922308
922309
922310
922311
922312
922313
922314
922315
922316
922317
922318
922319
922320
922321
922322
922323
922324
922325
922326
922327
922328
922329
922330
922331
922332
922333
922334
922335
922336
922337
922338
922339
922340
922341
922342
922343
922344
922345
922346
922347
922348
922349
922350
922351
922352
922353
922354
922355
922356
922357
922358
922359
922360
922361
922362
922363
922364
922365
922366
922367
922368
922369
922370
922371
922372
922373
922374
922375
922376
922377
922378
922379
922380
922381
922382
922383
922384
922385
922386
922387
922388
922389
922390
922391
922392
922393
922394
922395
922396
922397
922398
922399
922400
922401
922402
922403
922404
922405
922406
922407
922408
922409
922410
922411
922412
922413
922414
922415
922416
922417
922418
922419
922420
922421
922422
922423
922424
922425
922426
922427
922428
922429
922430
922431
922432
922433
922434
922435
922436
922437
922438
922439
922440
922441
922442
922443
922444
922445
922446
922447
922448
922449
922450
922451
922452
922453
922454
922455
922456
922457
922458
922459
922460
922461
922462
922463
922464
922465
922466
922467
922468
922469
922470
922471
922472
922473
922474
922475
922476
922477
922478
922479
922480
922481
922482
922483
922484
922485
922486
922487
922488
922489
922490
922491
922492
922493
922494
922495
922496
922497
922498
922499
922500
922501
922502
922503
922504
922505
922506
922507
922508
922509
922510
922511
922512
922513
922514
922515
922516
922517
922518
922519
922520
922521
922522
922523
922524
922525
922526
922527
922528
922529
922530
922531
922532
922533
922534
922535
922536
922537
922538
922539
922540
922541
922542
922543
922544
922545
922546
922547
922548
922549
922550
922551
922552
922553
922554
922555
922556
922557
922558
922559
922560
922561
922562
922563
922564
922565
922566
922567
922568
922569
922570
922571
922572
922573
922574
922575
922576
922577
922578
922579
922580
922581
922582
922583
922584
922585
922586
922587
922588
922589
922590
922591
922592
922593
922594
922595
922596
922597
922598
922599
922600
922601
922602
922603
922604
922605
922606
922607
922608
922609
922610
922611
922612
922613
922614
922615
922616
922617
922618
922619
922620
922621
922622
922623
922624
922625
922626
922627
922628
922629
922630
922631
922632
922633
922634
922635
922636
922637
922638
922639
922640
922641
922642
922643
922644
922645
922646
922647
922648
922649
922650
922651
922652
922653
922654
922655
922656
922657
922658
922659
922660
922661
922662
922663
922664
922665
922666
922667
922668
922669
922670
922671
922672
922673
922674
922675
922676
922677
922678
922679
922680
922681
922682
922683
922684
922685
922686
922687
922688
922689
922690
922691
922692
922693
922694
922695
922696
922697
922698
922699
922700
922701
922702
922703
922704
922705
922706
922707
922708
922709
922710
922711
922712
922713
922714
922715
922716
922717
922718
922719
922720
922721
922722
922723
922724
922725
922726
922727
922728
922729
922730
922731
922732
922733
922734
922735
922736
922737
922738
922739
922740
922741
922742
922743
922744
922745
922746
922747
922748
922749
922750
922751
922752
922753
922754
922755
922756
922757
922758
922759
922760
922761
922762
922763
922764
922765
922766
922767
922768
922769
922770
922771
922772
922773
922774
922775
922776
922777
922778
922779
922780
922781
922782
922783
922784
922785
922786
922787
922788
922789
922790
922791
922792
922793
922794
922795
922796
922797
922798
922799
922800
922801
922802
922803
922804
922805
922806
922807
922808
922809
922810
922811
922812
922813
922814
922815
922816
922817
922818
922819
922820
922821
922822
922823
922824
922825
922826
922827
922828
922829
922830
922831
922832
922833
922834
922835
922836
922837
922838
922839
922840
922841
922842
922843
922844
922845
922846
922847
922848
922849
922850
922851
922852
922853
922854
922855
922856
922857
922858
922859
922860
922861
922862
922863
922864
922865
922866
922867
922868
922869
922870
922871
922872
922873
922874
922875
922876
922877
922878
922879
922880
922881
922882
922883
922884
922885
922886
922887
922888
922889
922890
922891
922892
922893
922894
922895
922896
922897
922898
922899
922900
922901
922902
922903
922904
922905
922906
922907
922908
922909
922910
922911
922912
922913
922914
922915
922916
922917
922918
922919
922920
922921
922922
922923
922924
922925
922926
922927
922928
922929
922930
922931
922932
922933
922934
922935
922936
922937
922938
922939
922940
922941
922942
922943
922944
922945
922946
922947
922948
922949
922950
922951
922952
922953
922954
922955
922956
922957
922958
922959
922960
922961
922962
922963
922964
922965
922966
922967
922968
922969
922970
922971
922972
922973
922974
922975
922976
922977
922978
922979
922980
922981
922982
922983
922984
922985
922986
922987
922988
922989
922990
922991
922992
922993
922994
922995
922996
922997
922998
922999
923000
923001
923002
923003
923004
923005
923006
923007
923008
923009
923010
923011
923012
923013
923014
923015
923016
923017
923018
923019
923020
923021
923022
923023
923024
923025
923026
923027
923028
923029
923030
923031
923032
923033
923034
923035
923036
923037
923038
923039
923040
923041
923042
923043
923044
923045
923046
923047
923048
923049
923050
923051
923052
923053
923054
923055
923056
923057
923058
923059
923060
923061
923062
923063
923064
923065
923066
923067
923068
923069
923070
923071
923072
923073
923074
923075
923076
923077
923078
923079
923080
923081
923082
923083
923084
923085
923086
923087
923088
923089
923090
923091
923092
923093
923094
923095
923096
923097
923098
923099
923100
923101
923102
923103
923104
923105
923106
923107
923108
923109
923110
923111
923112
923113
923114
923115
923116
923117
923118
923119
923120
923121
923122
923123
923124
923125
923126
923127
923128
923129
923130
923131
923132
923133
923134
923135
923136
923137
923138
923139
923140
923141
923142
923143
923144
923145
923146
923147
923148
923149
923150
923151
923152
923153
923154
923155
923156
923157
923158
923159
923160
923161
923162
923163
923164
923165
923166
923167
923168
923169
923170
923171
923172
923173
923174
923175
923176
923177
923178
923179
923180
923181
923182
923183
923184
923185
923186
923187
923188
923189
923190
923191
923192
923193
923194
923195
923196
923197
923198
923199
923200
923201
923202
923203
923204
923205
923206
923207
923208
923209
923210
923211
923212
923213
923214
923215
923216
923217
923218
923219
923220
923221
923222
923223
923224
923225
923226
923227
923228
923229
923230
923231
923232
923233
923234
923235
923236
923237
923238
923239
923240
923241
923242
923243
923244
923245
923246
923247
923248
923249
923250
923251
923252
923253
923254
923255
923256
923257
923258
923259
923260
923261
923262
923263
923264
923265
923266
923267
923268
923269
923270
923271
923272
923273
923274
923275
923276
923277
923278
923279
923280
923281
923282
923283
923284
923285
923286
923287
923288
923289
923290
923291
923292
923293
923294
923295
923296
923297
923298
923299
923300
923301
923302
923303
923304
923305
923306
923307
923308
923309
923310
923311
923312
923313
923314
923315
923316
923317
923318
923319
923320
923321
923322
923323
923324
923325
923326
923327
923328
923329
923330
923331
923332
923333
923334
923335
923336
923337
923338
923339
923340
923341
923342
923343
923344
923345
923346
923347
923348
923349
923350
923351
923352
923353
923354
923355
923356
923357
923358
923359
923360
923361
923362
923363
923364
923365
923366
923367
923368
923369
923370
923371
923372
923373
923374
923375
923376
923377
923378
923379
923380
923381
923382
923383
923384
923385
923386
923387
923388
923389
923390
923391
923392