/*--------------------------------*- C++ -*----------------------------------*\
| =========                 |                                                 |
| \\      /  F ield         | OpenFOAM: The Open Source CFD Toolbox           |
|  \\    /   O peration     | Version:  v1812                                 |
|   \\  /    A nd           | Web:      www.OpenFOAM.com                      |
|    \\/     M anipulation  |                                                 |
\*---------------------------------------------------------------------------*/
FoamFile
{
    version     2.0;
    format      ascii;
    class       polyTopoChanger;
    location    "constant/polyMesh";
    object      meshModifiers;
}
// * * * * * * * * * * * * * * * * * * * * * * * * * * * * * * * * * * * * * //

1
(
couple0
{
    type            slidingInterface;
    masterFaceZoneName i_righto_rightMasterZone;
    slaveFaceZoneName i_righto_rightSlaveZone;
    cutPointZoneName i_righto_rightCutPointZone;
    cutFaceZoneName i_righto_rightCutFaceZone;
    masterPatchName i_right;
    slavePatchName  o_right;
    typeOfMatch     integral;
    coupleDecouple  true;
    projection      visible;
    attached        true;
    active          true;
    masterFaceCells List<label> 
1776
(
529058
529298
529538
529778
530018
530258
530498
530738
530978
531218
531458
529059
529299
529539
529779
530019
530259
530499
530739
530979
531219
531459
529060
529300
529540
529780
530020
530260
530500
530740
530980
531220
531460
529061
529301
529541
529781
530021
530261
530501
530741
530981
531221
531461
529062
529302
529542
529782
530022
530262
530502
530742
530982
531222
531462
529063
529303
529543
529783
530023
530263
530503
530743
530983
531223
531463
529064
529304
529544
529784
530024
530264
530504
530744
530984
531224
531464
529065
529305
529545
529785
530025
530265
530505
530745
530985
531225
531465
529066
529306
529546
529786
530026
530266
530506
530746
530986
531226
531466
529067
529307
529547
529787
530027
530267
530507
530747
530987
531227
531467
529068
529308
529548
529788
530028
530268
530508
530748
530988
531228
531468
529069
529309
529549
529789
530029
530269
530509
530749
530989
531229
531469
540578
540818
541058
541298
541538
540579
540819
541059
541299
541539
540580
540820
541060
541300
541540
540581
540821
541061
541301
541541
540582
540822
541062
541302
541542
540583
540823
541063
541303
541543
540584
540824
541064
541304
541544
540585
540825
541065
541305
541545
540586
540826
541066
541306
541546
540587
540827
541067
541307
541547
540588
540828
541068
541308
541548
540589
540829
541069
541309
541549
547778
548018
548258
548498
548738
547779
548019
548259
548499
548739
547780
548020
548260
548500
548740
547781
548021
548261
548501
548741
547782
548022
548262
548502
548742
547783
548023
548263
548503
548743
547784
548024
548264
548504
548744
547785
548025
548265
548505
548745
547786
548026
548266
548506
548746
547787
548027
548267
548507
548747
547788
548028
548268
548508
548748
547789
548029
548269
548509
548749
554978
555218
555458
555698
555938
554979
555219
555459
555699
555939
554980
555220
555460
555700
555940
554981
555221
555461
555701
555941
554982
555222
555462
555702
555942
554983
555223
555463
555703
555943
554984
555224
555464
555704
555944
554985
555225
555465
555705
555945
554986
555226
555466
555706
555946
554987
555227
555467
555707
555947
554988
555228
555468
555708
555948
554989
555229
555469
555709
555949
562178
562418
562658
562898
563138
562179
562419
562659
562899
563139
562180
562420
562660
562900
563140
562181
562421
562661
562901
563141
562182
562422
562662
562902
563142
562183
562423
562663
562903
563143
562184
562424
562664
562904
563144
562185
562425
562665
562905
563145
562186
562426
562666
562906
563146
562187
562427
562667
562907
563147
562188
562428
562668
562908
563148
562189
562429
562669
562909
563149
569378
569618
569858
570098
570338
569379
569619
569859
570099
570339
569380
569620
569860
570100
570340
569381
569621
569861
570101
570341
569382
569622
569862
570102
570342
569383
569623
569863
570103
570343
569384
569624
569864
570104
570344
569385
569625
569865
570105
570345
569386
569626
569866
570106
570346
569387
569627
569867
570107
570347
569388
569628
569868
570108
570348
569389
569629
569869
570109
570349
576578
576818
577058
577298
577538
576579
576819
577059
577299
577539
576580
576820
577060
577300
577540
576581
576821
577061
577301
577541
576582
576822
577062
577302
577542
576583
576823
577063
577303
577543
576584
576824
577064
577304
577544
576585
576825
577065
577305
577545
576586
576826
577066
577306
577546
576587
576827
577067
577307
577547
576588
576828
577068
577308
577548
576589
576829
577069
577309
577549
583778
584018
584258
584498
584738
583779
584019
584259
584499
584739
583780
584020
584260
584500
584740
583781
584021
584261
584501
584741
583782
584022
584262
584502
584742
583783
584023
584263
584503
584743
583784
584024
584264
584504
584744
583785
584025
584265
584505
584745
583786
584026
584266
584506
584746
583787
584027
584267
584507
584747
583788
584028
584268
584508
584748
583789
584029
584269
584509
584749
590978
591218
591458
591698
591938
590979
591219
591459
591699
591939
590980
591220
591460
591700
591940
590981
591221
591461
591701
591941
590982
591222
591462
591702
591942
590983
591223
591463
591703
591943
590984
591224
591464
591704
591944
590985
591225
591465
591705
591945
590986
591226
591466
591706
591946
590987
591227
591467
591707
591947
590988
591228
591468
591708
591948
590989
591229
591469
591709
591949
598178
598418
598658
598898
599138
598179
598419
598659
598899
599139
598180
598420
598660
598900
599140
598181
598421
598661
598901
599141
598182
598422
598662
598902
599142
598183
598423
598663
598903
599143
598184
598424
598664
598904
599144
598185
598425
598665
598905
599145
598186
598426
598666
598906
599146
598187
598427
598667
598907
599147
598188
598428
598668
598908
599148
598189
598429
598669
598909
599149
605378
605618
605858
606098
606338
605379
605619
605859
606099
606339
605380
605620
605860
606100
606340
605381
605621
605861
606101
606341
605382
605622
605862
606102
606342
605383
605623
605863
606103
606343
605384
605624
605864
606104
606344
605385
605625
605865
606105
606345
605386
605626
605866
606106
606346
605387
605627
605867
606107
606347
605388
605628
605868
606108
606348
605389
605629
605869
606109
606349
612578
612818
613058
613298
613538
612579
612819
613059
613299
613539
612580
612820
613060
613300
613540
612581
612821
613061
613301
613541
612582
612822
613062
613302
613542
612583
612823
613063
613303
613543
612584
612824
613064
613304
613544
612585
612825
613065
613305
613545
612586
612826
613066
613306
613546
612587
612827
613067
613307
613547
612588
612828
613068
613308
613548
612589
612829
613069
613309
613549
617618
617858
617619
617859
617620
617860
617621
617861
617622
617862
617623
617863
617624
617864
617625
617865
617626
617866
617627
617867
617628
617868
617629
617869
619058
619298
619538
619778
620018
620258
620498
620738
620978
621218
621458
619059
619299
619539
619779
620019
620259
620499
620739
620979
621219
621459
619060
619300
619540
619780
620020
620260
620500
620740
620980
621220
621460
619061
619301
619541
619781
620021
620261
620501
620741
620981
621221
621461
619062
619302
619542
619782
620022
620262
620502
620742
620982
621222
621462
619063
619303
619543
619783
620023
620263
620503
620743
620983
621223
621463
619064
619304
619544
619784
620024
620264
620504
620744
620984
621224
621464
619065
619305
619545
619785
620025
620265
620505
620745
620985
621225
621465
619066
619306
619546
619786
620026
620266
620506
620746
620986
621226
621466
619067
619307
619547
619787
620027
620267
620507
620747
620987
621227
621467
619068
619308
619548
619788
620028
620268
620508
620748
620988
621228
621468
619069
619309
619549
619789
620029
620269
620509
620749
620989
621229
621469
634898
635138
635378
635618
635858
634899
635139
635379
635619
635859
634900
635140
635380
635620
635860
634901
635141
635381
635621
635861
634902
635142
635382
635622
635862
634903
635143
635383
635623
635863
634904
635144
635384
635624
635864
634905
635145
635385
635625
635865
634906
635146
635386
635626
635866
634907
635147
635387
635627
635867
634908
635148
635388
635628
635868
634909
635149
635389
635629
635869
642098
642338
642578
642818
643058
642099
642339
642579
642819
643059
642100
642340
642580
642820
643060
642101
642341
642581
642821
643061
642102
642342
642582
642822
643062
642103
642343
642583
642823
643063
642104
642344
642584
642824
643064
642105
642345
642585
642825
643065
642106
642346
642586
642826
643066
642107
642347
642587
642827
643067
642108
642348
642588
642828
643068
642109
642349
642589
642829
643069
649298
649538
649778
650018
650258
649299
649539
649779
650019
650259
649300
649540
649780
650020
650260
649301
649541
649781
650021
650261
649302
649542
649782
650022
650262
649303
649543
649783
650023
650263
649304
649544
649784
650024
650264
649305
649545
649785
650025
650265
649306
649546
649786
650026
650266
649307
649547
649787
650027
650267
649308
649548
649788
650028
650268
649309
649549
649789
650029
650269
656498
656738
656978
657218
657458
656499
656739
656979
657219
657459
656500
656740
656980
657220
657460
656501
656741
656981
657221
657461
656502
656742
656982
657222
657462
656503
656743
656983
657223
657463
656504
656744
656984
657224
657464
656505
656745
656985
657225
657465
656506
656746
656986
657226
657466
656507
656747
656987
657227
657467
656508
656748
656988
657228
657468
656509
656749
656989
657229
657469
663698
663938
664178
664418
664658
663699
663939
664179
664419
664659
663700
663940
664180
664420
664660
663701
663941
664181
664421
664661
663702
663942
664182
664422
664662
663703
663943
664183
664423
664663
663704
663944
664184
664424
664664
663705
663945
664185
664425
664665
663706
663946
664186
664426
664666
663707
663947
664187
664427
664667
663708
663948
664188
664428
664668
663709
663949
664189
664429
664669
670898
671138
671378
671618
671858
670899
671139
671379
671619
671859
670900
671140
671380
671620
671860
670901
671141
671381
671621
671861
670902
671142
671382
671622
671862
670903
671143
671383
671623
671863
670904
671144
671384
671624
671864
670905
671145
671385
671625
671865
670906
671146
671386
671626
671866
670907
671147
671387
671627
671867
670908
671148
671388
671628
671868
670909
671149
671389
671629
671869
678098
678338
678578
678818
679058
678099
678339
678579
678819
679059
678100
678340
678580
678820
679060
678101
678341
678581
678821
679061
678102
678342
678582
678822
679062
678103
678343
678583
678823
679063
678104
678344
678584
678824
679064
678105
678345
678585
678825
679065
678106
678346
678586
678826
679066
678107
678347
678587
678827
679067
678108
678348
678588
678828
679068
678109
678349
678589
678829
679069
685298
685538
685778
686018
686258
685299
685539
685779
686019
686259
685300
685540
685780
686020
686260
685301
685541
685781
686021
686261
685302
685542
685782
686022
686262
685303
685543
685783
686023
686263
685304
685544
685784
686024
686264
685305
685545
685785
686025
686265
685306
685546
685786
686026
686266
685307
685547
685787
686027
686267
685308
685548
685788
686028
686268
685309
685549
685789
686029
686269
692498
692738
692978
693218
693458
692499
692739
692979
693219
693459
692500
692740
692980
693220
693460
692501
692741
692981
693221
693461
692502
692742
692982
693222
693462
692503
692743
692983
693223
693463
692504
692744
692984
693224
693464
692505
692745
692985
693225
693465
692506
692746
692986
693226
693466
692507
692747
692987
693227
693467
692508
692748
692988
693228
693468
692509
692749
692989
693229
693469
699698
699938
700178
700418
700658
699699
699939
700179
700419
700659
699700
699940
700180
700420
700660
699701
699941
700181
700421
700661
699702
699942
700182
700422
700662
699703
699943
700183
700423
700663
699704
699944
700184
700424
700664
699705
699945
700185
700425
700665
699706
699946
700186
700426
700666
699707
699947
700187
700427
700667
699708
699948
700188
700428
700668
699709
699949
700189
700429
700669
706898
707138
707378
707618
707858
706899
707139
707379
707619
707859
706900
707140
707380
707620
707860
706901
707141
707381
707621
707861
706902
707142
707382
707622
707862
706903
707143
707383
707623
707863
706904
707144
707384
707624
707864
706905
707145
707385
707625
707865
706906
707146
707386
707626
707866
706907
707147
707387
707627
707867
706908
707148
707388
707628
707868
706909
707149
707389
707629
707869
714098
714338
714099
714339
714100
714340
714101
714341
714102
714342
714103
714343
714104
714344
714105
714345
714106
714346
714107
714347
714108
714348
714109
714349
725618
725858
726098
726338
726578
726818
727058
727298
727538
727778
728018
728258
725619
725859
726099
726339
726579
726819
727059
727299
727539
727779
728019
728259
725620
725860
726100
726340
726580
726820
727060
727300
727540
727780
728020
728260
725621
725861
726101
726341
726581
726821
727061
727301
727541
727781
728021
728261
725622
725862
726102
726342
726582
726822
727062
727302
727542
727782
728022
728262
725623
725863
726103
726343
726583
726823
727063
727303
727543
727783
728023
728263
725624
725864
726104
726344
726584
726824
727064
727304
727544
727784
728024
728264
725625
725865
726105
726345
726585
726825
727065
727305
727545
727785
728025
728265
725626
725866
726106
726346
726586
726826
727066
727306
727546
727786
728026
728266
725627
725867
726107
726347
726587
726827
727067
727307
727547
727787
728027
728267
725628
725868
726108
726348
726588
726828
727068
727308
727548
727788
728028
728268
725629
725869
726109
726349
726589
726829
727069
727309
727549
727789
728029
728269
)
;
    slaveFaceCells  List<label> 
594
(
43579
43070
43018
43073
43212
45410
43016
43582
43584
43578
43858
43862
43857
43586
43591
43587
43865
43869
43864
44228
43213
44222
44227
44223
45409
45415
45413
45559
45565
45560
45644
45649
45643
45876
48082
48091
48109
48130
48154
48178
48204
48230
48083
48092
48110
48131
48155
48179
48205
48231
48080
48081
48084
48093
48111
62768
50620
49197
49323
49428
49183
49186
54734
49309
49312
55574
49414
56295
56267
49189
49193
49192
49315
49319
49318
49420
49424
49423
48180
49196
49200
48206
49322
49326
48232
49427
49431
50606
50609
50605
50754
50758
50752
50901
50905
50899
51027
51031
51025
50612
50616
50615
50760
50765
50762
50907
50912
50909
51033
51038
51035
48156
50619
50623
54840
54845
54842
55680
55685
55682
56373
56378
56375
54744
54747
54742
54763
54768
54764
49182
54740
54736
55584
55587
55582
55603
55608
55604
49308
55580
55576
56277
56280
56275
49417
56301
56297
49413
56273
56268
54786
54789
54784
54813
54817
54812
54805
54810
54806
55626
55629
55624
55653
55657
55652
55645
55650
55646
56319
56322
56317
56344
56350
56346
56339
56343
56337
50767
50772
50768
54834
54838
54833
54862
54866
54861
50914
50919
50915
55674
55678
55673
55702
55706
55701
51040
51045
51041
56367
56371
56366
56395
56399
56394
62754
62757
62753
62760
62764
62763
62750
62751
48132
62767
62771
205422
194909
194910
195190
195196
205453
195180
195176
205467
195187
195186
195192
195194
195275
195302
195329
195356
195383
195410
195437
195464
195491
195518
195545
206967
195276
195303
195330
195357
195384
195411
195438
195465
195492
195519
195546
206977
201980
202043
202148
206121
237462
195412
195439
195466
195493
195520
237504
206983
195264
195265
201961
201966
201969
201965
202029
202032
202028
202134
202137
202133
201972
201976
201975
202035
202039
202038
202140
202144
202143
195277
201979
201983
195304
202042
202046
195331
202147
202151
201948
211696
201947
201954
211717
201957
201963
205426
205430
205428
205433
205437
205435
205489
205493
205491
205509
205514
205510
205456
205458
205452
205460
205465
205461
205446
205451
205447
205470
205472
205466
205482
205486
205481
205474
205479
205475
205496
205500
205495
205504
205507
205502
205730
205734
205729
205835
205839
205834
205961
205965
205960
206107
206110
206106
206971
206968
234682
205736
205741
205738
205841
205846
205843
205967
205972
205969
206113
206117
206116
206978
206974
195573
211843
211848
211845
212284
212289
212286
212977
212982
212979
195358
206120
206124
206981
205716
205720
205715
205722
205727
205724
211724
211729
211726
211747
211750
211745
211766
211771
211767
211738
211743
211739
212188
212191
212186
212207
212212
212208
212179
212184
212180
212881
212884
212879
212900
212905
212901
212872
212877
212873
211789
211792
211787
211816
211820
211815
211808
211813
211809
212230
212233
212228
212257
212261
212256
212249
212254
212250
212923
212926
212921
212950
212954
212949
212942
212947
212943
205743
205748
205744
211837
211841
211836
211865
211869
211864
205848
205853
205849
212278
212282
212277
212306
212310
212305
205974
205979
205975
212971
212975
212970
212999
213003
212998
211691
211694
211689
211695
211701
211699
211685
211687
211683
211705
211708
211703
211716
211722
211720
211713
211715
211711
211734
211736
211732
234384
234385
234386
234409
234403
234400
234466
234410
234406
234387
234439
234442
234447
234451
234445
234496
234500
234495
234482
234486
234481
234474
234479
234476
234399
234472
234468
234502
234507
234503
234488
234493
234490
234455
234458
234453
235530
235533
235527
235891
235897
235895
195572
234688
234683
235898
235904
235902
234693
234695
234689
235909
235911
235905
237384
237390
237388
237391
237397
237395
237437
237439
237433
237440
237446
237443
237448
237451
237447
237490
237493
237489
237454
237458
237457
237496
237500
237499
195385
237461
237465
195547
237503
237507
238296
240311
240338
240364
260059
240339
240365
240313
246912
246911
246916
246915
260052
260055
260051
240312
260062
260061
260066
)
;
    masterStickOutFaces List<label> 
4974
(
1818639
1818640
1638434
1638435
1638436
1638437
1638438
1638439
1638440
1638441
1638442
1638443
1638444
1638445
2097198
1638446
1638447
1638448
1638449
1638450
1638451
1638452
1638453
1638454
1638455
1638456
1638457
1867855
1802342
1802343
1802344
1802345
1802346
1802347
1802348
1802349
1802350
1802351
1802352
1802353
1802354
1802355
1802356
1802357
1802358
1802359
1802360
1802361
1802362
1802363
1802364
1802365
2015409
2015410
2015411
2015412
2015413
2015414
2015415
2015416
2015417
2015418
2015419
2015420
2015421
2015422
2015423
2015424
2015425
2015426
2080963
2015427
2015428
655557
2015429
2015430
2015431
164039
2015432
2015433
1671375
1671376
655625
737549
1884470
1884471
1884472
1884473
1884474
1884475
1884476
1884477
1884478
1884479
1884480
1884481
1884482
1884483
1884484
1884485
2212166
1884486
2212167
1884487
1884488
1884489
1884490
1884491
1884492
1884493
1818993
1818994
2097532
737679
737681
737683
1802719
754149
754150
754151
1737206
1737207
1737208
1737209
1737210
1737211
1737212
1737213
1737214
1737215
1737216
1737217
1737218
1737219
1737220
1737221
1737222
1737223
1737224
1737225
1737226
1737227
1737228
1737229
1950233
1950234
1950235
1950236
1950237
1950238
1950239
1950240
1950241
1950242
1950243
1950244
2081317
1950245
1950246
1950247
1950248
1950249
1950250
1950251
1950252
1950253
1950254
1950255
1950256
1950257
2163361
2163362
2163363
2163364
2163365
2163366
2163367
2212520
2163368
2212521
2163369
2163370
2163371
2163372
2163373
2163374
2163375
2163376
2163377
2163378
2163379
2163380
2163381
2163382
2163383
2163384
2163385
2261705
2097866
1819347
1819348
1639142
1639143
1639144
1639145
1639146
1639147
1639148
1639149
1639150
1639151
1639152
1639153
1639154
1639155
1639156
1639157
1639158
1639159
1639160
1639161
1639162
1639163
1639164
1639165
164630
2261825
1803073
754511
754512
2261845
2261865
2261885
1672070
2081671
1672071
1672072
2016137
1672073
2016138
1672074
2016139
1672075
2016140
1672076
2016141
1672077
2016142
1672078
2016143
1672079
2016144
1672080
2016145
2261905
1672081
2016146
1672082
2016147
1672083
2016148
1672084
2016149
1672085
2016150
1672086
2016151
1672087
2016152
1672088
2016153
1672089
2016154
1672090
2016155
1672091
2016156
1672092
2016157
1672093
2016158
2016159
2016160
2016161
2261925
2261945
2261965
623566
623567
2261985
2262005
1885178
1885179
1885180
1885181
1885182
1885183
1885184
1885185
1885186
1885187
1885188
1885189
1885190
1885191
1885192
2262025
1885193
2212874
1885194
2212875
1885195
1885196
1885197
1885198
1885199
1885200
1885201
2098200
2262045
623662
623663
1819701
1819702
164997
2262165
1803427
197800
181429
754872
754873
1737914
1737915
1737916
1737917
1737918
1737919
1737920
1737921
1737922
1737923
1737924
1737925
1737926
1737927
1737928
1737929
1737930
1737931
1737932
1737933
1737934
1737935
1737936
1737937
2082025
1950961
1950962
1950963
1950964
1950965
1950966
1950967
1950968
1950969
1950970
1950971
1950972
1950973
1950974
1950975
1950976
1950977
1950978
1950979
1950980
1950981
1950982
1950983
1950984
1950985
2213228
2213229
2164089
2164090
2164091
2164092
2164093
2164094
2164095
2164096
2164097
2164098
2164099
2164100
2164101
2164102
2164103
2164104
2164105
2164106
2164107
2164108
2164109
2164110
2164111
2164112
2164113
1820055
1820056
1639850
1639851
1639852
1639853
1639854
1639855
1639856
1639857
1639858
1639859
1639860
1639861
1639862
1639863
1639864
1639865
1639866
1639867
1639868
1639869
1639870
1639871
1639872
1639873
2033144
1803781
2262545
2262565
755240
2262585
1672778
2082379
1672779
1672780
2262605
1672781
1672782
1672783
1672784
1672785
1672786
165459
1672787
1672788
165461
1672789
165462
1672790
1672791
1672792
165465
1672793
1672794
1672795
1672796
1672797
165470
1672798
1672799
1672800
2262625
2016865
1672801
2016866
165474
2016867
2016868
2016869
2016870
165478
2016871
2016872
2016873
2016874
165482
2016875
2016876
2016877
2016878
165486
2016879
2016880
2016881
2016882
165490
2016883
2016884
2262645
2016885
2016886
2016887
2016888
2016889
2262665
2262685
2262705
1885886
1885887
1885888
1885889
1885890
1885891
1885892
2262725
1885893
1885894
1885895
1885896
1885897
1885898
1885899
1885900
1885901
2213582
1885902
2213583
1885903
1885904
1885905
1885906
1885907
1885908
1902293
1885909
1902294
1902295
1902296
2262745
1902297
1902298
1902299
1902300
1902301
1902302
1902303
1902304
2098913
1902305
2098914
1902306
2098915
1902307
2098916
1902308
2098917
1902309
2098918
1902310
2098919
1902311
2098920
1902312
2098921
1902313
2098922
1902314
2098923
1902315
2098924
1902316
2262765
2098925
1902317
2098926
1902318
2098927
1902319
2098928
1902320
2098929
1902321
2098930
1902322
2098931
1902323
2098932
1902324
2098933
1902325
2098934
1902326
2098935
1902327
2098936
1902328
2098937
1902329
1754919
1754920
2033478
2262885
1804135
1738622
1738623
1738624
1738625
1738626
1738627
1738628
1738629
1738630
1738631
1738632
1738633
1738634
1738635
1738636
1738637
1738638
1738639
1738640
1738641
1738642
165779
1738643
1738644
1738645
1951689
1951690
1951691
1951692
1951693
1951694
1951695
1951696
1951697
1951698
1951699
1951700
1951701
1951702
1951703
1951704
1951705
1951706
2017243
1951707
1951708
1951709
1951710
1951711
1951712
1951713
641035
2213936
2213937
1820750
1820751
1820752
2164817
1820753
2164818
1820754
2164819
1820755
2164820
1820756
2164821
1820757
2164822
1820758
2164823
1820759
2164824
1820760
2164825
1820761
2164826
1820762
2164827
1820763
2164828
1820764
2164829
1820765
2164830
1820766
2164831
1820767
2164832
1820768
2164833
1820769
2164834
1820770
2164835
1820771
2164836
1820772
2164837
1820773
2164838
2164839
2164840
2164841
1640558
1640559
1640560
1640561
1640562
1640563
1640564
1640565
1640566
1640567
1640568
1640569
1640570
1640571
1640572
1640573
1640574
1640575
1640576
1640577
1640578
1640579
1640580
1640581
1755273
1755274
166035
2033812
166036
166038
166040
166064
166068
166070
166072
166074
1738999
1673486
1673487
1673488
1673489
1673490
1673491
1673492
1673493
1673494
1673495
1673496
1673497
1673498
1673499
1673500
1673501
1673502
1673503
1673504
1673505
1673506
1673507
1673508
1673509
2017597
1886594
1886595
1886596
1886597
1886598
1886599
1886600
100744
1886601
1886602
1886603
1886604
100748
1886605
1886606
1886607
1886608
1886609
100753
2214290
1886610
2214291
1886611
100755
1886612
1886613
100757
1886614
1886615
100759
1886616
1886617
133532
133533
133534
133536
133538
133540
2099641
1903033
2099642
1903034
2099643
1903035
2099644
1903036
2099645
1903037
2099646
1903038
2099647
1903039
2099648
1903040
100800
2099649
1903041
100801
2099650
1903042
2099651
1903043
100803
2099652
1903044
2099653
1903045
100805
2099654
1903046
2099655
1903047
100807
2099656
1903048
2099657
1903049
2099658
1903050
2099659
1903051
2099660
1903052
2099661
1903053
2099662
1903054
2099663
1903055
2099664
1903056
2099665
1903057
2034146
1755627
1755628
199152
674294
674348
674349
674350
674351
1739353
674438
674439
674440
133777
2017951
1952417
1952418
1952419
1952420
1952421
1952422
1952423
1952424
1952425
1952426
1952427
1952428
1952429
1952430
1952431
1952432
1952433
1952434
1952435
1952436
1952437
1952438
1952439
1952440
1952441
2181824
2214644
2214645
1821458
1821459
1821460
1821461
1821462
1821463
1821464
1821465
1821466
1821467
1821468
1821469
1821470
1821471
1821472
1821473
1821474
1821475
1821476
1821477
1821478
1821479
1821480
2165545
1821481
2165546
2165547
641835
2165548
2165549
2165550
2165551
2165552
2034480
2165553
2165554
1641266
2165555
1641267
2165556
1641268
2165557
1641269
2165558
1641270
2165559
1641271
2165560
1641272
2263865
2165561
1641273
2165562
1641274
2165563
1641275
2165564
1641276
2165565
2247485
1641277
2165566
1641278
2165567
1641279
2165568
2247488
1641280
2165569
1641281
1641282
1641283
1641284
1641285
1641286
1641287
1641288
1641289
1755981
1755982
1739707
1674194
1674195
1674196
1674197
1674198
1674199
1674200
1674201
1674202
1674203
1674204
1674205
1674206
1674207
1674208
1674209
1674210
1674211
1674212
1674213
1674214
1674215
1674216
199657
1674217
199660
199662
199664
199666
199670
199672
199674
199676
199678
2018305
2182158
199701
199704
199706
199708
199710
199714
199716
199718
199720
199745
199748
1887302
199750
1887303
1887304
199752
1887305
1887306
1887307
1887308
1887309
199757
1887310
1887311
199759
1887312
1887313
199761
1887314
199763
1887315
1887316
1887317
2214998
1887318
2214999
1887319
1887320
1887321
1887322
1887323
1887324
1887325
2247779
2247804
2100369
1903761
2100370
1903762
2100371
1903763
2100372
1903764
2100373
1903765
2100374
1903766
2100375
1903767
2100376
1903768
2100377
1903769
2100378
1903770
2100379
1903771
2100380
1903772
2100381
1903773
2100382
1903774
2100383
1903775
2100384
1903776
2100385
1903777
2100386
1903778
2165923
2100387
1903779
2100388
1903780
2100389
1903781
2100390
1903782
2100391
1903783
2100392
1903784
2100393
1903785
1756335
1756336
183529
1969424
1740061
2215233
2182492
2018659
1953145
1953146
1953147
1953148
1953149
1953150
1953151
1953152
1953153
1953154
1953155
1953156
1953157
1953158
1953159
1953160
1953161
1953162
1953163
1953164
1953165
1953166
1953167
1953168
1953169
1887679
1822166
1822167
1822168
1822169
1822170
1822171
1822172
1822173
1822174
1822175
1822176
1822177
1822178
675299
1822179
675300
1822180
675301
1822181
1822182
1822183
1822184
1822185
1822186
1822187
1822188
1822189
1641974
1641975
1641976
2035193
1641977
2035194
1641978
2035195
1641979
2035196
1641980
2035197
1641981
2035198
1641982
2035199
1641983
2035200
1641984
2035201
1641985
2035202
1641986
2035203
1641987
2035204
1641988
2166277
2035205
1641989
2035206
1641990
2035207
1641991
2035208
1641992
2035209
1641993
2035210
1641994
2035211
1641995
2035212
1641996
2035213
1641997
2035214
2035215
2035216
2035217
609835
609836
609839
675385
675386
675387
675388
1691199
1691200
1969758
1740415
1674902
1674903
1674904
1674905
1674906
1674907
1674908
1674909
1674910
1674911
1674912
167585
1674913
1674914
1674915
1674916
1674917
1674918
1674919
1674920
1674921
2182826
1674922
1674923
1674924
1674925
610007
610009
610013
610014
167665
1953523
659200
659201
102173
102176
1888033
102177
102181
1757030
2166631
1757031
1757032
2101097
1904489
1757033
2101098
1904490
1757034
2101099
1904491
1757035
2101100
1904492
1757036
2101101
1904493
1757037
2101102
1904494
1757038
2101103
1904495
1757039
2101104
1904496
1757040
2101105
1904497
1757041
2101106
1904498
1757042
2101107
1904499
1757043
2101108
1904500
1757044
2101109
1904501
1757045
2101110
1904502
1757046
2101111
1904503
1757047
2101112
1904504
1757048
2101113
1904505
1757049
2101114
1904506
1757050
2101115
1904507
1757051
2101116
1904508
1757052
2101117
1904509
1757053
2101118
1904510
2101119
1904511
2101120
1904512
2101121
1904513
1691553
1691554
1970092
659373
659374
2215918
2215919
2215920
2215921
2215922
2215923
2215924
2215925
2215926
2215927
2183160
2215928
2215929
2215930
2215931
2215932
2215933
2215934
2215935
2215936
2215937
2215938
2215939
2215940
2215941
1675279
626722
643120
1953877
1888387
1822874
1822875
1822876
1822877
1822878
1822879
1822880
1822881
1822882
1822883
1822884
1822885
1822886
1822887
1822888
1822889
1822890
1822891
1822892
1822893
1822894
1822895
1822896
1822897
1642682
1642683
1642684
1642685
1642686
1642687
1642688
1642689
1642690
1642691
1642692
1642693
1642694
1642695
1642696
2166985
1642697
1642698
1642699
1642700
1642701
1642702
1642703
1642704
2035921
1642705
2035922
2035923
2035924
2035925
2035926
2035927
2035928
2035929
2035930
2035931
2035932
2035933
2035934
2035935
2035936
2035937
2035938
2035939
2035940
2035941
2035942
2035943
2035944
2035945
1970426
1691907
168196
1691908
168249
168250
1675633
1954231
676284
676285
676286
201165
2118104
1888741
201198
774644
774646
774652
774656
774660
774664
774668
676367
676368
774672
676369
774676
610858
1757738
610859
2167339
1757739
1757740
1757741
610862
1757742
1757743
1757744
1757745
1757746
1757747
1757748
1757749
1757750
1757751
1757752
1757753
1757754
1757755
1757756
1757757
1757758
1757759
1757760
2101825
1905217
1757761
2101826
1905218
2101827
1905219
2101828
1905220
2101829
1905221
2101830
1905222
2101831
1905223
2101832
1970760
1905224
2101833
1905225
2101834
1905226
2101835
1905227
2101836
1905228
2101837
1905229
2101838
1905230
2101839
1905231
2101840
1905232
2101841